@<TRIPOS>MOLECULE
IBPRAC
    33    33     1     0     1
SMALL
NO_CHARGES
****
Generated from the CSD

@<TRIPOS>ATOM
     1 C1       5.4167   2.7333   4.2158   C.2       1 0      0.0000
     2 C2       1.3237  -1.0693   7.4152   C.3       1 0      0.0000
     3 C3       0.3225  -2.0535   6.8064   C.3       1 0      0.0000
     4 C4      -0.6738  -2.5235   7.8588   C.3       1 0      0.0000
     5 C5       1.0100  -3.2309   6.1596   C.3       1 0      0.0000
     6 C6       4.5774   1.7460   3.4440   C.3       1 0      0.0000
     7 C7       5.4621   0.8604   2.5790   C.3       1 0      0.0000
     8 C8       3.7282   0.9873   4.4582   C.ar      1 0      0.0000
     9 C9       2.4277   1.3730   4.7218   C.ar      1 0      0.0000
    10 C10      1.6635   0.7113   5.6651   C.ar      1 0      0.0000
    11 C11      2.1704  -0.3557   6.3893   C.ar      1 0      0.0000
    12 C12      3.4761  -0.7247   6.1384   C.ar      1 0      0.0000
    13 C13      4.2430  -0.0670   5.1877   C.ar      1 0      0.0000
    14 H1       5.4985   4.4516   4.9918   H         1 0      0.0000
    15 H2       1.8679  -1.6111   8.0906   H         1 0      0.0000
    16 H3       0.8185  -0.4519   7.9350   H         1 0      0.0000
    17 H4      -0.1993  -1.5859   6.0929   H         1 0      0.0000
    18 H5      -0.1392  -3.0653   8.5395   H         1 0      0.0000
    19 H6      -1.0967  -1.7822   8.2802   H         1 0      0.0000
    20 H7      -1.2929  -3.1497   7.4417   H         1 0      0.0000
    21 H8       1.7298  -2.9557   5.5032   H         1 0      0.0000
    22 H9       0.3026  -3.7963   5.7350   H         1 0      0.0000
    23 H10      1.4565  -3.7127   6.9028   H         1 0      0.0000
    24 H11      4.0125   2.2854   2.8934   H         1 0      0.0000
    25 H12      6.0869   0.3391   3.1486   H         1 0      0.0000
    26 H13      5.8798   1.4289   1.9141   H         1 0      0.0000
    27 H14      4.9551   0.2476   2.0602   H         1 0      0.0000
    28 H15      2.0879   2.1016   4.2031   H         1 0      0.0000
    29 H16      0.7518   0.9992   5.8483   H         1 0      0.0000
    30 H17      3.8872  -1.4928   6.7048   H         1 0      0.0000
    31 H18      5.1471  -0.3730   5.0416   H         1 0      0.0000
    32 O1       4.8498   3.8933   4.4074   O.3       1 0      0.0000
    33 O2       6.5211   2.4604   4.6604   O.2       1 0      0.0000
@<TRIPOS>BOND
     1     1     6    1
     2     2     3    1
     3     3     4    1
     4     4    18    1
     5     5     3    1
     6     6     7    1
     7     7    25    1
     8     8     6    1
     9     9     8   ar
    10    10     9   ar
    11    11     2    1
    12    12    11   ar
    13    13     8   ar
    14    14    32    1
    15    15     2    1
    16    16     2    1
    17    17     3    1
    18    19     4    1
    19    20     4    1
    20    21     5    1
    21    22     5    1
    22    23     5    1
    23    24     6    1
    24    26     7    1
    25    27     7    1
    26    28     9    1
    27    29    10    1
    28    30    12    1
    29    31    13    1
    30    32     1    1
    31    33     1    2
    32    10    11   ar
    33    12    13   ar
@<TRIPOS>SUBSTRUCTURE
     1 0           1 GROUP             0 ****  ****    0  
@<TRIPOS>SET
CCDC_LIGAND STATIC ATOMS
33 1 2 3 4 5 6 7 8 9 \
10 11 12 13 14 15 16 17 18 19 \
20 21 22 23 24 25 26 27 28 29 \
30 31 32 33 
@<TRIPOS>CRYSIN
   14.6670    7.8860   10.7300   90.0000   99.3620   90.0000    14     1
