@<TRIPOS>MOLECULE
pharmacophore
    10     6     1     0     0
SMALL
NO_CHARGES
****
Generated from the CSD

@<TRIPOS>ATOM
     1 ACC18.0_3    2.1991   3.4224   6.1980   B         1 RES1   0.0000
     2 VP1.0    4.6299   5.0980   6.2658   F         1 RES1   0.0000
     3 VP0.8    1.9797   1.3329   8.1192   F         1 RES1   0.0000
     4 ACC6.3_2   -0.0858   2.5747   3.6647   B         1 RES1   0.0000
     5 VP1.0   -0.9150   0.5765   1.5918   F         1 RES1   0.0000
     6 VP1.0    0.5836   0.8358   1.3202   F         1 RES1   0.0000
     7 VP1.0   -2.1914   0.8526   2.4188   F         1 RES1   0.0000
     8 VP1.0   -2.9036   1.5902   3.5796   F         1 RES1   0.0000
     9 HY8.3_3   -1.2810   5.4096   1.9212   C.3       1 RES1   0.0000
    10 HY7.4_3    0.7109   3.2090   4.5531   C.3       1 RES1   0.0000
@<TRIPOS>BOND
     1     1     2    1
     2     1     3    1
     3     4     5    1
     4     4     6    1
     5     4     7    1
     6     4     8    1
@<TRIPOS>SUBSTRUCTURE
     1 RES1        1 GROUP             0 ****  ****    0  
# ATOMS1 1 10 2 12 3 12
# COORDS1 2.1687 2.2227 3.3705 3.4939 6.1245 6.2608
# ATOMS4 2 11 3 2
# COORDS4 -0.1336 -0.0381 2.5067 2.6428 3.6608 3.6686
# ATOMS9 1 1 1 2 1 3 1 4 2 6 2 8 2 9 2 10 3 6 3 9
# ATOMS9 3 10 3 11
# COORDS9 -2.7014 -0.0340 4.0836 6.8468 0.2146 3.0698
# ATOMS10 1 6 1 7 2 2 2 3 2 4 2 5 2 11 3 1 3 2 3 3
# ATOMS10 3 4 3 5
# COORDS10 -0.1336 1.7247 2.1348 4.5120 3.2424 5.3470
