# SuperStar Peaks : AROMATIC CH CARBON

@<TRIPOS>MOLECULE
peaks
   19     0    19
SMALL
SuperStar


@<TRIPOS>ATOM
      1 DU1       23.8392    7.1000   65.7549 Du         1 PEAK1         4.9662
      2 DU2       27.9558    5.2758   60.2442 Du         2 PEAK2         4.4604
      3 DU3       23.1000    2.8000   60.9000 Du         3 PEAK3         4.0914
      4 DU4       21.7608    3.5608   62.2923 Du         4 PEAK4         3.3793
      5 DU5       30.0795    8.4620   64.3380 Du         5 PEAK5         3.3226
      6 DU6       25.4099   10.4598   62.3731 Du         6 PEAK6         3.2462
      7 DU7       26.9985   10.4343   62.5831 Du         7 PEAK7         3.1651
      8 DU8       22.7886    7.3095   60.1826 Du         8 PEAK8         2.9888
      9 DU9       29.1092    9.1000   65.7286 Du         9 PEAK9         2.9504
     10 DU10      23.1728    8.7886   60.9728 Du        10 PEAK10        2.9044
     11 DU11      26.6000    9.7577   60.9000 Du        11 PEAK11        2.8850
     12 DU12      29.3258    9.7258   64.1428 Du        12 PEAK12        2.8585
     13 DU13      24.5000    8.1271   59.5808 Du        13 PEAK13        2.8109
     14 DU14      27.3000    9.0929   66.4172 Du        14 PEAK14        2.6129
     15 DU15      22.4000    4.2000   60.2000 Du        15 PEAK15        2.6054
     16 DU16      25.3071    3.6283   67.8174 Du        16 PEAK16        2.1340
     17 DU17      28.5539    2.1329   62.3742 Du        17 PEAK17        1.6974
     18 DU18      30.7474    2.9563   63.8563 Du        18 PEAK18        1.6194
     19 DU19      26.7758    4.7449   68.5410 Du        19 PEAK19        1.4953
@<TRIPOS>BOND
