@<TRIPOS>MOLECULE
01_conforme
    26    25     1     0     0
SMALL
USER_CHARGES
****
Generated from the CSD

@<TRIPOS>ATOM
     1 C1      -1.9554   6.4988   2.3356   C.3       1 RES1   0.0000
     2 C2      -2.1271   4.0836   2.2668   C.3       1 RES1   0.0000
     3 C3      -0.6775   5.2339   0.6931   C.3       1 RES1   0.0000
     4 C4      -0.0340   5.0842   3.0698   C.3       1 RES1   0.0000
     5 C5       0.8352   3.8526   2.9473   C.3       1 RES1   0.0000
     6 C6       1.5242   3.3144   5.1534   C.2       1 RES1   0.0000
     7 C7       0.2140   2.6043   5.0890   C.3       1 RES1   0.0000
     8 N1      -1.1873   5.2358   2.0998   N.4       1 RES1   1.0000
     9 O1       1.8611   3.8442   3.9743   O.3       1 RES1   0.0000
    10 O2       2.2227   3.4029   6.1245   O.2       1 RES1   0.0000
    11 H1      -2.2923   6.5593   3.3683   H         1 RES1   0.0000
    12 H2      -1.3458   7.3739   2.1231   H         1 RES1   0.0000
    13 H3      -2.8315   6.5389   1.6917   H         1 RES1   0.0000
    14 H4      -2.9734   4.1748   1.5892   H         1 RES1   0.0000
    15 H5      -1.6242   3.1420   2.0562   H         1 RES1   0.0000
    16 H6      -2.5104   4.0428   3.2842   H         1 RES1   0.0000
    17 H7       1.2960   3.8187   1.9524   H         1 RES1   0.0000
    18 H8       0.2127   2.9555   3.0529   H         1 RES1   0.0000
    19 H9       0.0561   6.0242   0.5478   H         1 RES1   0.0000
    20 H10     -0.2036   4.2838   0.4559   H         1 RES1   0.0000
    21 H11     -1.4907   5.3925  -0.0120   H         1 RES1   0.0000
    22 H12      0.6072   5.9707   2.9892   H         1 RES1   0.0000
    23 H13     -0.4618   5.0794   4.0800   H         1 RES1   0.0000
    24 H14      0.2684   1.7555   4.4104   H         1 RES1   0.0000
    25 H15     -0.0734   2.2351   6.0712   H         1 RES1   0.0000
    26 H16     -0.5692   3.2714   4.7352   H         1 RES1   0.0000
@<TRIPOS>BOND
     1     4     5    1
     2     6     7    1
     3     8     1    1
     4     9     5    1
     5    10     6    2
     6     2     8    1
     7     3     8    1
     8     4     8    1
     9     6     9    1
    10     1    11    1
    11     1    12    1
    12     1    13    1
    13     2    14    1
    14     2    15    1
    15     2    16    1
    16     5    17    1
    17     5    18    1
    18     3    19    1
    19     3    20    1
    20     3    21    1
    21     4    22    1
    22     4    23    1
    23     7    24    1
    24     7    25    1
    25     7    26    1
@<TRIPOS>SUBSTRUCTURE
     1 RES1        1 GROUP             0 ****  ****    0  
@<TRIPOS>MOLECULE
02_conforme
    30    30     1     0     0
SMALL
USER_CHARGES
****
Generated from the CSD

@<TRIPOS>ATOM
     1 C1       0.8048   0.9360   5.2211   C.3       1 RES1   0.0000
     2 C2       0.3460   2.3659   5.0371   C.3       1 RES1   0.0000
     3 C3       1.4105   3.3954   5.3470   C.2       1 RES1   0.0000
     4 C4       1.2919   4.4608   4.2781   C.3       1 RES1   0.0000
     5 C5      -0.0061   4.0651   3.5753   C.3       1 RES1   0.0000
     6 C6      -0.1235   4.4694   2.1218   C.3       1 RES1   0.0000
     7 N1      -1.3418   5.2585   1.6834   N.4       1 RES1   1.0000
     8 C7      -2.5893   4.4752   1.9458   C.3       1 RES1   0.0000
     9 C8      -1.4382   6.5760   2.3872   C.3       1 RES1   0.0000
    10 C9      -1.2534   5.5296   0.2146   C.3       1 RES1   0.0000
    11 O1      -0.0381   2.6428   3.6686   O.3       1 RES1   0.0000
    12 O2       2.2061   3.3705   6.2608   O.2       1 RES1   0.0000
    13 H1       1.0739   0.7478   6.2584   H         1 RES1   0.0000
    14 H2       0.0165   0.2393   4.9437   H         1 RES1   0.0000
    15 H3       1.6748   0.7273   4.6020   H         1 RES1   0.0000
    16 H4      -0.5117   2.5440   5.6839   H         1 RES1   0.0000
    17 H5      -0.8494   4.4766   4.1281   H         1 RES1   0.0000
    18 H6       2.1378   4.4296   3.5930   H         1 RES1   0.0000
    19 H7       1.2167   5.4546   4.7171   H         1 RES1   0.0000
    20 H8      -0.5171   7.1437   2.2724   H         1 RES1   0.0000
    21 H9      -2.2529   7.1688   1.9765   H         1 RES1   0.0000
    22 H10     -1.6275   6.4434   3.4490   H         1 RES1   0.0000
    23 H11     -0.1134   3.5447   1.5317   H         1 RES1   0.0000
    24 H12      0.7721   5.0415   1.8500   H         1 RES1   0.0000
    25 H13     -2.6995   4.2700   3.0086   H         1 RES1   0.0000
    26 H14     -3.4672   5.0256   1.6140   H         1 RES1   0.0000
    27 H15     -2.5659   3.5243   1.4176   H         1 RES1   0.0000
    28 H16     -1.2051   4.5991  -0.3472   H         1 RES1   0.0000
    29 H17     -2.1225   6.0875  -0.1276   H         1 RES1   0.0000
    30 H18     -0.3640   6.1120  -0.0172   H         1 RES1   0.0000
@<TRIPOS>BOND
     1     1     2    1
     2     2     3    1
     3     3     4    1
     4     4     5    1
     5     5     6    1
     6     6     7    1
     7     7     8    1
     8     9     7    1
     9    10     7    1
    10    11     2    1
    11    12     3    2
    12     5    11    1
    13     1    13    1
    14     1    14    1
    15     1    15    1
    16     2    16    1
    17     5    17    1
    18     4    18    1
    19     4    19    1
    20     9    20    1
    21     9    21    1
    22     9    22    1
    23     6    23    1
    24     6    24    1
    25     8    25    1
    26     8    26    1
    27     8    27    1
    28    10    28    1
    29    10    29    1
    30    10    30    1
@<TRIPOS>SUBSTRUCTURE
     1 RES1        1 GROUP             0 ****  ****    0  
@<TRIPOS>MOLECULE
03_conforme
    32    32     1     0     0
SMALL
USER_CHARGES
****
Generated from the CSD

@<TRIPOS>ATOM
     1 C1       0.8202   2.1348   4.6238   C.3       1 RES1   0.0000
     2 O2      -0.1336   2.5067   3.6608   O.3       1 RES1   0.0000
     3 C3       0.0735   3.8836   3.2424   C.3       1 RES1   0.0000
     4 C4       0.8294   4.5120   4.4002   C.3       1 RES1   0.0000
     5 C5       1.7247   3.3706   4.8566   C.3       1 RES1   0.0000
     6 C6      -1.2665   4.4965   2.8973   C.3       1 RES1   0.0000
     7 C7       0.0860   1.6889   5.8666   C.3       1 RES1   0.0000
     8 N8      -1.3040   5.7326   2.0197   N.4       1 RES1   1.0000
     9 C9      -0.5396   6.8468   2.6623   C.3       1 RES1   0.0000
    10 C10     -2.7014   6.1993   1.7581   C.3       1 RES1   0.0000
    11 C11     -0.6668   5.4214   0.7022   C.3       1 RES1   0.0000
    12 O12      2.1687   3.4939   6.2087   O.3       1 RES1   0.0000
    13 H1       1.4211   1.3111   4.2413   H         1 RES1   0.0000
    14 H2       0.7074   3.8941   2.3570   H         1 RES1   0.0000
    15 H3      -1.7906   4.7215   3.8344   H         1 RES1   0.0000
    16 H4      -1.8459   3.7242   2.3764   H         1 RES1   0.0000
    17 H5       0.1504   4.8225   5.1930   H         1 RES1   0.0000
    18 H6       1.4173   5.3672   4.0701   H         1 RES1   0.0000
    19 H7       2.5908   3.3097   4.1992   H         1 RES1   0.0000
    20 H8      -3.2257   6.4003   2.6884   H         1 RES1   0.0000
    21 H9      -2.6927   7.1202   1.1788   H         1 RES1   0.0000
    22 H10     -3.2622   5.4534   1.1988   H         1 RES1   0.0000
    23 H11     -0.5598   0.8406   5.6497   H         1 RES1   0.0000
    24 H12      0.7875   1.3910   6.6430   H         1 RES1   0.0000
    25 H13     -0.5321   2.4938   6.2591   H         1 RES1   0.0000
    26 H14      0.4969   6.5594   2.8258   H         1 RES1   0.0000
    27 H15     -0.5501   7.7346   2.0334   H         1 RES1   0.0000
    28 H16     -0.9747   7.1081   3.6248   H         1 RES1   0.0000
    29 H17     -0.6753   6.2950   0.0537   H         1 RES1   0.0000
    30 H18      0.3668   5.1099   0.8376   H         1 RES1   0.0000
    31 H19     -1.1992   4.6187   0.1963   H         1 RES1   0.0000
    32 H20      2.7192   4.3103   6.3007   H         1 RES1   0.0000
@<TRIPOS>BOND
     1     3     6    1
     2     1     7    1
     3     2     3    1
     4     6     8    1
     5     3     4    1
     6     8     9    1
     7     4     5    1
     8     8    10    1
     9     5     1    1
    10     8    11    1
    11     1     2    1
    12     5    12    1
    13     1    13    1
    14     3    14    1
    15     6    15    1
    16     6    16    1
    17     4    17    1
    18     4    18    1
    19     5    19    1
    20    10    20    1
    21    10    21    1
    22    10    22    1
    23     7    23    1
    24     7    24    1
    25     7    25    1
    26     9    26    1
    27     9    27    1
    28     9    28    1
    29    11    29    1
    30    11    30    1
    31    11    31    1
    32    12    32    1
@<TRIPOS>SUBSTRUCTURE
     1 RES1        1 GROUP             0 ****  ****    0  
