@<TRIPOS>MOLECULE
pharmacophore_model
     8     0     1     0     0
SMALL
NO_CHARGES
****
Generated from the CSD - Crystal connectivity not present

@<TRIPOS>ATOM
     1 1       26.2088   5.5233  63.5367   C.3       1 RES1   0.0000
     2 1       26.2088   5.5233  63.5367   C.3       1 RES1   0.0000
     3 1       26.2088   5.5233  63.5367   C.3       1 RES1   0.0000
     4 1       27.6069   4.6354  64.9403   C.3       1 RES1   0.0000
     5 1       27.6069   4.6354  64.9403   C.3       1 RES1   0.0000
     6 1       28.3846   5.4130  65.2895   N.3       1 RES1   0.0000
     7 1       27.3085   3.5470  65.0775   N.3       1 RES1   0.0000
     8 1       28.3646   4.1370  65.6975   O.3       1 RES1   0.0000
@<TRIPOS>SUBSTRUCTURE
     1 RES1        1 GROUP             0 ****  ****    0  
