@<TRIPOS>MOLECULE
ACHOLC
    24    22     2     0     0
SMALL
USER_CHARGES
****
Generated from the CSD

@<TRIPOS>ATOM
     1 Cl1      1.6134   2.5485   1.5293   Cl        1 RES1  -1.0000
     2 C1      -1.9185   6.7178   1.8170   C.3       2 RES2   0.0000
     3 C2      -1.8108   4.2624   1.6537   C.3       2 RES2   0.0000
     4 C3      -0.2135   5.6227   0.4160   C.3       2 RES2   0.0000
     5 C4      -0.1108   5.4087   2.8914   C.3       2 RES2   0.0000
     6 C5       0.9366   6.4216   3.0873   C.3       2 RES2   0.0000
     7 C6       1.2327   8.6970   3.7585   C.2       2 RES2   0.0000
     8 C7       0.6163   9.7549   4.6121   C.3       2 RES2   0.0000
     9 H1      -2.4473   6.7008   1.2441   H         2 RES2   0.0000
    10 H2      -2.4271   6.5922   2.6477   H         2 RES2   0.0000
    11 H3      -1.3898   7.5383   1.4419   H         2 RES2   0.0000
    12 H4      -2.3566   4.2500   1.1612   H         2 RES2   0.0000
    13 H5      -1.1783   3.3659   1.8757   H         2 RES2   0.0000
    14 H6      -2.4170   4.2345   2.5903   H         2 RES2   0.0000
    15 H7      -0.6848   5.4909  -0.2105   H         2 RES2   0.0000
    16 H8       0.3122   6.7008   0.4657   H         2 RES2   0.0000
    17 H9       0.3424   4.7774   0.3190   H         2 RES2   0.0000
    18 H10     -0.6848   5.3048   3.8152   H         2 RES2   0.0000
    19 H11      0.4230   4.5602   2.8710   H         2 RES2   0.0000
    20 H12      1.6516   6.1113   3.8535   H         2 RES2   0.0000
    21 H13      1.4704   6.9024   2.1373   H         2 RES2   0.0000
    22 N1      -1.0131   5.5250   1.7054   N.4       2 RES2   1.0000
    23 O1       0.4139   7.5895   3.7782   O.3       2 RES2   0.0000
    24 O2       2.2458   8.7358   3.1498   O.2       2 RES2   0.0000
@<TRIPOS>BOND
     1     2     9    1
     2     3    12    1
     3     4    15    1
     4     5     6    1
     5     6    20    1
     6     7     8    1
     7    10     2    1
     8    11     2    1
     9    13     3    1
    10    14     3    1
    11    16     4    1
    12    17     4    1
    13    18     5    1
    14    19     5    1
    15    21     6    1
    16    22     2    1
    17    23     6    1
    18    24     7    2
    19     3    22    1
    20     4    22    1
    21     5    22    1
    22     7    23    1
@<TRIPOS>SUBSTRUCTURE
     1 RES1        1 GROUP             0 ****  ****    0  
     2 RES2        2 GROUP             0 ****  ****    0  
@<TRIPOS>CRYSIN
   10.0710   15.5110    6.3800   90.0000   90.0000   90.0000    19     1
@<TRIPOS>MOLECULE
LAVFAP
    31    30     2     0     0
SMALL
USER_CHARGES
****
Generated from the CSD

@<TRIPOS>ATOM
     1 I1       7.2230   8.4476   3.7365   I         1 RES1  -1.0000
     2 C1       8.2666  11.7365  -0.1191   C.3       2 RES2   0.0000
     3 C2       9.5767  11.7890   0.6231   C.3       2 RES2   0.0000
     4 C3      10.4879  10.6085   0.3097   C.2       2 RES2   0.0000
     5 C4      11.8871  11.1587   0.0797   C.3       2 RES2   0.0000
     6 C5      11.7308  12.6373   0.4265   C.3       2 RES2   0.0000
     7 C6      12.4284  13.6300  -0.4935   C.3       2 RES2   0.0000
     8 N1      13.8822  13.8992  -0.2025   N.4       2 RES2   1.0000
     9 C7      14.0627  14.6227   1.0950   C.3       2 RES2   0.0000
    10 C8      14.6993  12.6373  -0.1749   C.3       2 RES2   0.0000
    11 C9      14.3842  14.7763  -1.3183   C.3       2 RES2   0.0000
    12 O1      10.3316  12.9326   0.2196   O.3       2 RES2   0.0000
    13 O2      10.1473   9.4517   0.2501   O.2       2 RES2   0.0000
    14 H1       7.7900  10.8987   0.1117   H         2 RES2   0.0000
    15 H2       8.4127  11.6078  -1.0347   H         2 RES2   0.0000
    16 H3       7.7265  12.5532   0.1787   H         2 RES2   0.0000
    17 H4       9.5056  11.7785   1.6228   H         2 RES2   0.0000
    18 H5      12.5809  10.6098   0.6104   H         2 RES2   0.0000
    19 H6      12.1234  11.0300  -0.9156   H         2 RES2   0.0000
    20 H7      11.9201  12.7502   1.4292   H         2 RES2   0.0000
    21 H8      12.4284  13.3542  -1.3697   H         2 RES2   0.0000
    22 H9      12.0091  14.4835  -0.4243   H         2 RES2   0.0000
    23 H10     15.1225  14.7592   1.2729   H         2 RES2   0.0000
    24 H11     13.7755  14.0502   1.7642   H         2 RES2   0.0000
    25 H12     13.6230  15.3633   1.0719   H         2 RES2   0.0000
    26 H13     15.5419  12.9209  -0.1117   H         2 RES2   0.0000
    27 H14     14.5507  12.2118  -0.9603   H         2 RES2   0.0000
    28 H15     14.3346  12.0937   0.5509   H         2 RES2   0.0000
    29 H16     15.3386  15.0481  -1.1762   H         2 RES2   0.0000
    30 H17     13.7246  15.5734  -1.3250   H         2 RES2   0.0000
    31 H18     14.3727  14.2997  -2.1215   H         2 RES2   0.0000
@<TRIPOS>BOND
     1     2     3    1
     2     3     4    1
     3     4     5    1
     4     5     6    1
     5     6     7    1
     6     7     8    1
     7     8     9    1
     8     9    23    1
     9    10     8    1
    10    11     8    1
    11    12     3    1
    12    13     4    2
    13    14     2    1
    14    15     2    1
    15    16     2    1
    16    17     3    1
    17    18     5    1
    18    19     5    1
    19    20     6    1
    20    21     7    1
    21    22     7    1
    22    24     9    1
    23    25     9    1
    24    26    10    1
    25    27    10    1
    26    28    10    1
    27    29    11    1
    28    30    11    1
    29    31    11    1
    30     6    12    1
@<TRIPOS>SUBSTRUCTURE
     1 RES1        1 GROUP             0 ****  ****    0  
     2 RES2        2 GROUP             0 ****  ****    0  
@<TRIPOS>CRYSIN
   12.7080   13.1310    7.4440   90.0000   90.0000   90.0000    19     1
@<TRIPOS>MOLECULE
SciTegic12231509382D
    12    12     1     0     0
SMALL
USER_CHARGES
****
Generated from the CSD

@<TRIPOS>ATOM
     1 C1       2.4452 -22.9495   0.0000   C.2       1 RES1   0.0000
     2 O2       3.1071 -23.4419   0.0000   O.3       1 RES1   0.0000
     3 C3       3.7812 -22.9659   0.0000   C.2       1 RES1   0.0000
     4 C4       3.5346 -22.1760   0.0000   C.3       1 RES1   0.0000
     5 C5       2.7105 -22.1696   0.0000   C.2       1 RES1   0.0000
     6 C6       4.5625 -23.2307   0.0000   C.2       1 RES1   0.0000
     7 C7       1.6574 -23.1946   0.0000   C.2       1 RES1   0.0000
     8 N8       5.1825 -22.6864   0.0000   N.4       1 RES1   1.0000
     9 C9       5.9639 -22.9512   0.0000   C.2       1 RES1   0.0000
    10 C10      5.0211 -21.8774   0.0000   C.2       1 RES1   0.0000
    11 C11      5.7625 -22.0958   0.0000   C.2       1 RES1   0.0000
    12 O12      2.2328 -21.4970   0.0000   O.3       1 RES1   0.0000
@<TRIPOS>BOND
     1     3     6    1
     2     1     7    1
     3     2     3    1
     4     6     8    1
     5     3     4    1
     6     8     9    1
     7     4     5    1
     8     8    10    1
     9     5     1    1
    10     8    11    1
    11     1     2    1
    12     5    12    1
@<TRIPOS>SUBSTRUCTURE
     1 RES1        1 GROUP             0 ****  ****    0  
