@<TRIPOS>MOLECULE
LAVFAP
    30    30     1     0     0
SMALL
USER_CHARGES
****
Generated from the CSD

@<TRIPOS>ATOM
     1 C1       8.1683  11.5534   0.0406   C.3       1 RES1   0.0000
     2 C2       9.5622  11.8999   0.5160   C.3       1 RES1   0.0000
     3 C3      10.5111  10.7267   0.5525   C.2       1 RES1   0.0000
     4 C4      11.6021  10.9091  -0.4340   C.3       1 RES1   0.0000
     5 C5      11.3761  12.3126  -0.9991   C.3       1 RES1   0.0000
     6 C6      11.1475  12.3978  -2.4926   C.3       1 RES1   0.0000
     7 N1      11.2028  13.7582  -3.1597   N.4       1 RES1   1.0000
     8 C7      10.9729  13.6239  -4.6320   C.3       1 RES1   0.0000
     9 C8      10.1873  14.7008  -2.5932   C.3       1 RES1   0.0000
    10 C9      12.5557  14.3599  -2.9448   C.3       1 RES1   0.0000
    11 O1      10.2127  12.8489  -0.3555   O.3       1 RES1   0.0000
    12 O2      10.4333   9.7466   1.2609   O.2       1 RES1   0.0000
    13 H1       7.6959  10.8432   0.7161   H         1 RES1   0.0000
    14 H2       7.5443  12.4434  -0.0059   H         1 RES1   0.0000
    15 H3       8.1987  11.1085  -0.9518   H         1 RES1   0.0000
    16 H4       9.4959  12.3289   1.5147   H         1 RES1   0.0000
    17 H5      12.2332  12.9334  -0.7423   H         1 RES1   0.0000
    18 H6      11.5368  10.1613  -1.2229   H         1 RES1   0.0000
    19 H7      12.5749  10.8413   0.0509   H         1 RES1   0.0000
    20 H8      10.4110  14.9306  -1.5536   H         1 RES1   0.0000
    21 H9      10.1815  15.6349  -3.1511   H         1 RES1   0.0000
    22 H10      9.1869  14.2793  -2.6424   H         1 RES1   0.0000
    23 H11     10.1485  11.9881  -2.6862   H         1 RES1   0.0000
    24 H12     11.8726  11.7418  -2.9899   H         1 RES1   0.0000
    25 H13      9.9900  13.2025  -4.8321   H         1 RES1   0.0000
    26 H14     11.0318  14.5938  -5.1216   H         1 RES1   0.0000
    27 H15     11.7191  12.9717  -5.0809   H         1 RES1   0.0000
    28 H16     13.3328  13.7178  -3.3542   H         1 RES1   0.0000
    29 H17     12.6276  15.3308  -3.4305   H         1 RES1   0.0000
    30 H18     12.7530  14.4964  -1.8836   H         1 RES1   0.0000
@<TRIPOS>BOND
     1     1     2    1
     2     2     3    1
     3     3     4    1
     4     4     5    1
     5     5     6    1
     6     6     7    1
     7     7     8    1
     8     9     7    1
     9    10     7    1
    10    11     2    1
    11    12     3    2
    12     5    11    1
    13     1    13    1
    14     1    14    1
    15     1    15    1
    16     2    16    1
    17     5    17    1
    18     4    18    1
    19     4    19    1
    20     9    20    1
    21     9    21    1
    22     9    22    1
    23     6    23    1
    24     6    24    1
    25     8    25    1
    26     8    26    1
    27     8    27    1
    28    10    28    1
    29    10    29    1
    30    10    30    1
@<TRIPOS>SUBSTRUCTURE
     1 RES1        1 GROUP             0 ****  ****    0  
@<TRIPOS>MOLECULE
LAVFAP
    30    30     1     0     0
SMALL
USER_CHARGES
****
Generated from the CSD

@<TRIPOS>ATOM
     1 C1       8.1683  11.5534   0.0406   C.3       1 RES1   0.0000
     2 C2       9.5622  11.8999   0.5160   C.3       1 RES1   0.0000
     3 C3      10.4742  10.7205   0.5405   C.2       1 RES1   0.0000
     4 C4      11.7287  11.1914  -0.1942   C.3       1 RES1   0.0000
     5 C5      11.0830  12.1778  -1.1651   C.3       1 RES1   0.0000
     6 C6      10.3434  11.5683  -2.3363   C.3       1 RES1   0.0000
     7 N1       9.6590  12.4930  -3.3239   N.4       1 RES1   1.0000
     8 C7       9.1031  11.7081  -4.4700   C.3       1 RES1   0.0000
     9 C8       8.5516  13.2722  -2.6860   C.3       1 RES1   0.0000
    10 C9      10.6569  13.4706  -3.8596   C.3       1 RES1   0.0000
    11 O1      10.1840  12.8733  -0.3142   O.3       1 RES1   0.0000
    12 O2      10.2506   9.6348   1.0301   O.2       1 RES1   0.0000
    13 H1       7.5506  11.2161   0.8704   H         1 RES1   0.0000
    14 H2       7.6878  12.4196  -0.4093   H         1 RES1   0.0000
    15 H3       8.2005  10.7595  -0.7026   H         1 RES1   0.0000
    16 H4       9.4919  12.3023   1.5255   H         1 RES1   0.0000
    17 H5      11.8391  12.8689  -1.5347   H         1 RES1   0.0000
    18 H6      12.2279  10.3749  -0.7138   H         1 RES1   0.0000
    19 H7      12.4343  11.6808   0.4756   H         1 RES1   0.0000
    20 H8       8.9306  13.8867  -1.8721   H         1 RES1   0.0000
    21 H9       8.0802  13.9298  -3.4134   H         1 RES1   0.0000
    22 H10      7.7841  12.6138  -2.2882   H         1 RES1   0.0000
    23 H11      9.5663  10.9165  -1.9185   H         1 RES1   0.0000
    24 H12     11.0427  10.9305  -2.8909   H         1 RES1   0.0000
    25 H13      8.3596  10.9933  -4.1234   H         1 RES1   0.0000
    26 H14      8.6283  12.3667  -5.1943   H         1 RES1   0.0000
    27 H15      9.8915  11.1572  -4.9787   H         1 RES1   0.0000
    28 H16     11.4747  12.9535  -4.3572   H         1 RES1   0.0000
    29 H17     10.1919  14.1410  -4.5795   H         1 RES1   0.0000
    30 H18     11.0757  14.0734  -3.0566   H         1 RES1   0.0000
@<TRIPOS>BOND
     1     1     2    1
     2     2     3    1
     3     3     4    1
     4     4     5    1
     5     5     6    1
     6     6     7    1
     7     7     8    1
     8     9     7    1
     9    10     7    1
    10    11     2    1
    11    12     3    2
    12     5    11    1
    13     1    13    1
    14     1    14    1
    15     1    15    1
    16     2    16    1
    17     5    17    1
    18     4    18    1
    19     4    19    1
    20     9    20    1
    21     9    21    1
    22     9    22    1
    23     6    23    1
    24     6    24    1
    25     8    25    1
    26     8    26    1
    27     8    27    1
    28    10    28    1
    29    10    29    1
    30    10    30    1
@<TRIPOS>SUBSTRUCTURE
     1 RES1        1 GROUP             0 ****  ****    0  
@<TRIPOS>MOLECULE
LAVFAP
    30    30     1     0     0
SMALL
USER_CHARGES
****
Generated from the CSD

@<TRIPOS>ATOM
     1 C1       8.1683  11.5534   0.0406   C.3       1 RES1   0.0000
     2 C2       9.5622  11.8999   0.5160   C.3       1 RES1   0.0000
     3 C3      10.5111  10.7267   0.5525   C.2       1 RES1   0.0000
     4 C4      11.6021  10.9091  -0.4340   C.3       1 RES1   0.0000
     5 C5      11.3761  12.3126  -0.9991   C.3       1 RES1   0.0000
     6 C6      11.1475  12.3978  -2.4926   C.3       1 RES1   0.0000
     7 N1      12.3468  12.3176  -3.4169   N.4       1 RES1   1.0000
     8 C7      13.3006  13.4333  -3.1271   C.3       1 RES1   0.0000
     9 C8      13.0694  11.0135  -3.2841   C.3       1 RES1   0.0000
    10 C9      11.8875  12.4439  -4.8353   C.3       1 RES1   0.0000
    11 O1      10.2127  12.8489  -0.3555   O.3       1 RES1   0.0000
    12 O2      10.4333   9.7466   1.2609   O.2       1 RES1   0.0000
    13 H1       7.6959  10.8432   0.7161   H         1 RES1   0.0000
    14 H2       7.5443  12.4434  -0.0059   H         1 RES1   0.0000
    15 H3       8.1987  11.1085  -0.9518   H         1 RES1   0.0000
    16 H4       9.4959  12.3289   1.5147   H         1 RES1   0.0000
    17 H5      12.2332  12.9334  -0.7423   H         1 RES1   0.0000
    18 H6      11.5368  10.1613  -1.2229   H         1 RES1   0.0000
    19 H7      12.5749  10.8413   0.0509   H         1 RES1   0.0000
    20 H8      12.3869  10.1777  -3.4227   H         1 RES1   0.0000
    21 H9      13.8548  10.9351  -4.0329   H         1 RES1   0.0000
    22 H10     13.5332  10.9172  -2.3061   H         1 RES1   0.0000
    23 H11     10.6596  13.3610  -2.6862   H         1 RES1   0.0000
    24 H12     10.4405  11.6091  -2.7783   H         1 RES1   0.0000
    25 H13     13.6710  13.3687  -2.1062   H         1 RES1   0.0000
    26 H14     14.1544  13.3955  -3.8004   H         1 RES1   0.0000
    27 H15     12.8141  14.3986  -3.2507   H         1 RES1   0.0000
    28 H16     11.3745  13.3905  -4.9917   H         1 RES1   0.0000
    29 H17     12.7321  12.3990  -5.5196   H         1 RES1   0.0000
    30 H18     11.2007  11.6399  -5.0913   H         1 RES1   0.0000
@<TRIPOS>BOND
     1     1     2    1
     2     2     3    1
     3     3     4    1
     4     4     5    1
     5     5     6    1
     6     6     7    1
     7     7     8    1
     8     9     7    1
     9    10     7    1
    10    11     2    1
    11    12     3    2
    12     5    11    1
    13     1    13    1
    14     1    14    1
    15     1    15    1
    16     2    16    1
    17     5    17    1
    18     4    18    1
    19     4    19    1
    20     9    20    1
    21     9    21    1
    22     9    22    1
    23     6    23    1
    24     6    24    1
    25     8    25    1
    26     8    26    1
    27     8    27    1
    28    10    28    1
    29    10    29    1
    30    10    30    1
@<TRIPOS>SUBSTRUCTURE
     1 RES1        1 GROUP             0 ****  ****    0  
@<TRIPOS>MOLECULE
LAVFAP
    30    30     1     0     0
SMALL
USER_CHARGES
****
Generated from the CSD

@<TRIPOS>ATOM
     1 C1       8.1683  11.5534   0.0406   C.3       1 RES1   0.0000
     2 C2       9.5622  11.8999   0.5160   C.3       1 RES1   0.0000
     3 C3      10.5086  10.7200   0.5504   C.2       1 RES1   0.0000
     4 C4      11.8349  11.2267   0.0252   C.3       1 RES1   0.0000
     5 C5      11.5969  12.7347  -0.0418   C.3       1 RES1   0.0000
     6 C6      12.4066  13.4891  -1.0739   C.3       1 RES1   0.0000
     7 N1      13.2252  14.6834  -0.6238   N.4       1 RES1   1.0000
     8 C7      12.3356  15.7250  -0.0218   C.3       1 RES1   0.0000
     9 C8      14.2708  14.3003   0.3764   C.3       1 RES1   0.0000
    10 C9      13.9202  15.2808  -1.8065   C.3       1 RES1   0.0000
    11 O1      10.2111  12.8595  -0.3529   O.3       1 RES1   0.0000
    12 O2      10.2564   9.5923   0.9155   O.2       1 RES1   0.0000
    13 H1       7.6959  10.8432   0.7161   H         1 RES1   0.0000
    14 H2       7.5443  12.4434  -0.0059   H         1 RES1   0.0000
    15 H3       8.1987  11.1085  -0.9518   H         1 RES1   0.0000
    16 H4       9.4951  12.3238   1.5168   H         1 RES1   0.0000
    17 H5      11.7810  13.1676   0.9404   H         1 RES1   0.0000
    18 H6      12.0528  10.8167  -0.9599   H         1 RES1   0.0000
    19 H7      12.6487  10.9848   0.7072   H         1 RES1   0.0000
    20 H8      14.8945  13.4949  -0.0059   H         1 RES1   0.0000
    21 H9      14.9146  15.1488   0.5986   H         1 RES1   0.0000
    22 H10     13.8223  13.9713   1.3099   H         1 RES1   0.0000
    23 H11     11.6999  13.8535  -1.8296   H         1 RES1   0.0000
    24 H12     13.0796  12.7789  -1.5699   H         1 RES1   0.0000
    25 H13     11.8212  15.3338   0.8535   H         1 RES1   0.0000
    26 H14     12.9128  16.5948   0.2848   H         1 RES1   0.0000
    27 H15     11.5848  16.0518  -0.7383   H         1 RES1   0.0000
    28 H16     13.1997  15.5997  -2.5568   H         1 RES1   0.0000
    29 H17     14.5082  16.1473  -1.5112   H         1 RES1   0.0000
    30 H18     14.5903  14.5572  -2.2661   H         1 RES1   0.0000
@<TRIPOS>BOND
     1     1     2    1
     2     2     3    1
     3     3     4    1
     4     4     5    1
     5     5     6    1
     6     6     7    1
     7     7     8    1
     8     9     7    1
     9    10     7    1
    10    11     2    1
    11    12     3    2
    12     5    11    1
    13     1    13    1
    14     1    14    1
    15     1    15    1
    16     2    16    1
    17     5    17    1
    18     4    18    1
    19     4    19    1
    20     9    20    1
    21     9    21    1
    22     9    22    1
    23     6    23    1
    24     6    24    1
    25     8    25    1
    26     8    26    1
    27     8    27    1
    28    10    28    1
    29    10    29    1
    30    10    30    1
@<TRIPOS>SUBSTRUCTURE
     1 RES1        1 GROUP             0 ****  ****    0  
