@<TRIPOS>MOLECULE
SciTegic12231509382D
    32    32     1     0     0
SMALL
USER_CHARGES
****
Generated from the CSD

@<TRIPOS>ATOM
     1 C1       2.7570 -20.7997  -2.4987   C.3       1 RES1   0.0000
     2 O2       3.8542 -21.0250  -1.6078   O.3       1 RES1   0.0000
     3 C3       4.4013 -22.2920  -1.9493   C.3       1 RES1   0.0000
     4 C4       3.2695 -23.1080  -2.6015   C.3       1 RES1   0.0000
     5 C5       2.0738 -22.1633  -2.5784   C.3       1 RES1   0.0000
     6 C6       4.9597 -22.9084  -0.6849   C.3       1 RES1   0.0000
     7 C7       1.8686 -19.6869  -1.9941   C.3       1 RES1   0.0000
     8 N8       6.2323 -22.3373  -0.0900   N.4       1 RES1   1.0000
     9 C9       6.6165 -23.0997   1.1387   C.3       1 RES1   0.0000
    10 C10      6.0907 -20.8915   0.2684   C.3       1 RES1   0.0000
    11 C11      7.3409 -22.4595  -1.0874   C.3       1 RES1   0.0000
    12 O12      1.2821 -22.3325  -1.4013   O.3       1 RES1   0.0000
    13 H1       3.1421 -20.5334  -3.4819   H         1 RES1   0.0000
    14 H2       5.2069 -22.1543  -2.6690   H         1 RES1   0.0000
    15 H3       5.1127 -23.9794  -0.8659   H         1 RES1   0.0000
    16 H4       4.1839 -22.8149   0.0851   H         1 RES1   0.0000
    17 H5       3.0617 -24.0096  -2.0272   H         1 RES1   0.0000
    18 H6       3.5280 -23.3803  -3.6237   H         1 RES1   0.0000
    19 H7       1.4725 -22.2571  -3.4815   H         1 RES1   0.0000
    20 H8       5.2603 -20.7390   0.9524   H         1 RES1   0.0000
    21 H9       6.9925 -20.5312   0.7591   H         1 RES1   0.0000
    22 H10      5.9238 -20.2853  -0.6194   H         1 RES1   0.0000
    23 H11      2.4267 -18.7571  -1.9071   H         1 RES1   0.0000
    24 H12      1.0358 -19.5200  -2.6740   H         1 RES1   0.0000
    25 H13      1.4627 -19.9314  -1.0147   H         1 RES1   0.0000
    26 H14      6.7648 -24.1527   0.9086   H         1 RES1   0.0000
    27 H15      7.5414 -22.7113   1.5601   H         1 RES1   0.0000
    28 H16      5.8405 -23.0246   1.8976   H         1 RES1   0.0000
    29 H17      8.2707 -22.0678  -0.6803   H         1 RES1   0.0000
    30 H18      7.5018 -23.5005  -1.3595   H         1 RES1   0.0000
    31 H19      7.1072 -21.9045  -1.9936   H         1 RES1   0.0000
    32 H20      0.8491 -23.2214  -1.4215   H         1 RES1   0.0000
@<TRIPOS>BOND
     1     3     6    1
     2     1     7    1
     3     2     3    1
     4     6     8    1
     5     3     4    1
     6     8     9    1
     7     4     5    1
     8     8    10    1
     9     5     1    1
    10     8    11    1
    11     1     2    1
    12     5    12    1
    13     1    13    1
    14     3    14    1
    15     6    15    1
    16     6    16    1
    17     4    17    1
    18     4    18    1
    19     5    19    1
    20    10    20    1
    21    10    21    1
    22    10    22    1
    23     7    23    1
    24     7    24    1
    25     7    25    1
    26     9    26    1
    27     9    27    1
    28     9    28    1
    29    11    29    1
    30    11    30    1
    31    11    31    1
    32    12    32    1
@<TRIPOS>SUBSTRUCTURE
     1 RES1        1 GROUP             0 ****  ****    0  
@<TRIPOS>MOLECULE
SciTegic12231509382D
    32    32     1     0     0
SMALL
USER_CHARGES
****
Generated from the CSD

@<TRIPOS>ATOM
     1 C1       2.7375 -20.7127  -2.4607   C.3       1 RES1   0.0000
     2 O2       3.8343 -20.9925  -1.6276   O.3       1 RES1   0.0000
     3 C3       4.4013 -22.2920  -1.9493   C.3       1 RES1   0.0000
     4 C4       3.2608 -23.0368  -2.6211   C.3       1 RES1   0.0000
     5 C5       2.5715 -21.9302  -3.4039   C.3       1 RES1   0.0000
     6 C6       4.9597 -22.9084  -0.6849   C.3       1 RES1   0.0000
     7 C7       1.5313 -20.4661  -1.5851   C.3       1 RES1   0.0000
     8 N8       6.2290 -22.3335  -0.0867   N.4       1 RES1   1.0000
     9 C9       6.6119 -23.0942   1.1435   C.3       1 RES1   0.0000
    10 C10      6.0824 -20.8879   0.2706   C.3       1 RES1   0.0000
    11 C11      7.3407 -22.4531  -1.0809   C.3       1 RES1   0.0000
    12 O12      1.2073 -22.2133  -3.7193   O.3       1 RES1   0.0000
    13 H1       2.9469 -19.8215  -3.0505   H         1 RES1   0.0000
    14 H2       5.2098 -22.1590  -2.6665   H         1 RES1   0.0000
    15 H3       5.1171 -23.9786  -0.8674   H         1 RES1   0.0000
    16 H4       4.1821 -22.8192   0.0838   H         1 RES1   0.0000
    17 H5       2.5893 -23.4774  -1.8856   H         1 RES1   0.0000
    18 H6       3.6343 -23.8158  -3.2842   H         1 RES1   0.0000
    19 H7       3.1218 -21.7470  -4.3257   H         1 RES1   0.0000
    20 H8       5.2571 -20.7389   0.9615   H         1 RES1   0.0000
    21 H9       6.9864 -20.5217   0.7527   H         1 RES1   0.0000
    22 H10      5.9043 -20.2841  -0.6168   H         1 RES1   0.0000
    23 H11      1.7042 -19.6237  -0.9186   H         1 RES1   0.0000
    24 H12      0.6543 -20.2453  -2.1899   H         1 RES1   0.0000
    25 H13      1.3116 -21.3406  -0.9761   H         1 RES1   0.0000
    26 H14      6.7637 -24.1469   0.9144   H         1 RES1   0.0000
    27 H15      7.5345 -22.7030   1.5673   H         1 RES1   0.0000
    28 H16      5.8335 -23.0208   1.9002   H         1 RES1   0.0000
    29 H17      8.2684 -22.0587  -0.6714   H         1 RES1   0.0000
    30 H18      7.5054 -23.4938  -1.3520   H         1 RES1   0.0000
    31 H19      7.1082 -21.8992  -1.9880   H         1 RES1   0.0000
    32 H20      1.1635 -23.0112  -4.3020   H         1 RES1   0.0000
@<TRIPOS>BOND
     1     3     6    1
     2     1     7    1
     3     2     3    1
     4     6     8    1
     5     3     4    1
     6     8     9    1
     7     4     5    1
     8     8    10    1
     9     5     1    1
    10     8    11    1
    11     1     2    1
    12     5    12    1
    13     1    13    1
    14     3    14    1
    15     6    15    1
    16     6    16    1
    17     4    17    1
    18     4    18    1
    19     5    19    1
    20    10    20    1
    21    10    21    1
    22    10    22    1
    23     7    23    1
    24     7    24    1
    25     7    25    1
    26     9    26    1
    27     9    27    1
    28     9    28    1
    29    11    29    1
    30    11    30    1
    31    11    31    1
    32    12    32    1
@<TRIPOS>SUBSTRUCTURE
     1 RES1        1 GROUP             0 ****  ****    0  
@<TRIPOS>MOLECULE
SciTegic12231509382D
    32    32     1     0     0
SMALL
USER_CHARGES
****
Generated from the CSD

@<TRIPOS>ATOM
     1 C1       4.9496 -24.3347  -3.4360   C.3       1 RES1   0.0000
     2 O2       5.7657 -24.5625  -2.2845   O.3       1 RES1   0.0000
     3 C3       4.9687 -24.3561  -1.1255   C.3       1 RES1   0.0000
     4 C4       3.5474 -24.7293  -1.5224   C.3       1 RES1   0.0000
     5 C5       3.6153 -24.9684  -3.0320   C.3       1 RES1   0.0000
     6 C6       4.9597 -22.9084  -0.6849   C.3       1 RES1   0.0000
     7 C7       4.7931 -22.8725  -3.7823   C.3       1 RES1   0.0000
     8 N8       6.2174 -22.3182  -0.0771   N.4       1 RES1   1.0000
     9 C9       6.6096 -23.0847   1.1465   C.3       1 RES1   0.0000
    10 C10      6.0454 -20.8790   0.2942   C.3       1 RES1   0.0000
    11 C11      7.3338 -22.4089  -1.0691   C.3       1 RES1   0.0000
    12 O12      2.4579 -24.4900  -3.7191   O.3       1 RES1   0.0000
    13 H1       5.3644 -24.8696  -4.2891   H         1 RES1   0.0000
    14 H2       5.3128 -24.9947  -0.3133   H         1 RES1   0.0000
    15 H3       4.1354 -22.7730   0.0263   H         1 RES1   0.0000
    16 H4       4.7276 -22.3063  -1.5721   H         1 RES1   0.0000
    17 H5       2.8590 -23.9174  -1.2928   H         1 RES1   0.0000
    18 H6       3.2289 -25.6327  -1.0045   H         1 RES1   0.0000
    19 H7       3.6874 -26.0419  -3.2003   H         1 RES1   0.0000
    20 H8       5.3819 -20.7734   1.1483   H         1 RES1   0.0000
    21 H9       7.0030 -20.4387   0.5641   H         1 RES1   0.0000
    22 H10      5.6336 -20.3095  -0.5364   H         1 RES1   0.0000
    23 H11      5.6116 -22.2881  -3.3672   H         1 RES1   0.0000
    24 H12      4.7878 -22.7301  -4.8609   H         1 RES1   0.0000
    25 H13      3.8600 -22.4796  -3.3840   H         1 RES1   0.0000
    26 H14      6.7799 -24.1323   0.9073   H         1 RES1   0.0000
    27 H15      7.5242 -22.6823   1.5770   H         1 RES1   0.0000
    28 H16      5.8280 -23.0322   1.9015   H         1 RES1   0.0000
    29 H17      8.2087 -21.8671  -0.7158   H         1 RES1   0.0000
    30 H18      7.6206 -23.4455  -1.2333   H         1 RES1   0.0000
    31 H19      7.0355 -21.9842  -2.0254   H         1 RES1   0.0000
    32 H20      1.6542 -24.9457  -3.3661   H         1 RES1   0.0000
@<TRIPOS>BOND
     1     3     6    1
     2     1     7    1
     3     2     3    1
     4     6     8    1
     5     3     4    1
     6     8     9    1
     7     4     5    1
     8     8    10    1
     9     5     1    1
    10     8    11    1
    11     1     2    1
    12     5    12    1
    13     1    13    1
    14     3    14    1
    15     6    15    1
    16     6    16    1
    17     4    17    1
    18     4    18    1
    19     5    19    1
    20    10    20    1
    21    10    21    1
    22    10    22    1
    23     7    23    1
    24     7    24    1
    25     7    25    1
    26     9    26    1
    27     9    27    1
    28     9    28    1
    29    11    29    1
    30    11    30    1
    31    11    31    1
    32    12    32    1
@<TRIPOS>SUBSTRUCTURE
     1 RES1        1 GROUP             0 ****  ****    0  
@<TRIPOS>MOLECULE
SciTegic12231509382D
    32    32     1     0     0
SMALL
USER_CHARGES
****
Generated from the CSD

@<TRIPOS>ATOM
     1 C1       3.4426 -25.8873  -1.8732   C.3       1 RES1   0.0000
     2 O2       3.8915 -24.5381  -2.0353   O.3       1 RES1   0.0000
     3 C3       4.9687 -24.3561  -1.1255   C.3       1 RES1   0.0000
     4 C4       4.7632 -25.3648   0.0201   C.3       1 RES1   0.0000
     5 C5       3.4837 -26.0998  -0.3614   C.3       1 RES1   0.0000
     6 C6       4.9597 -22.9084  -0.6849   C.3       1 RES1   0.0000
     7 C7       2.0786 -26.0831  -2.4924   C.3       1 RES1   0.0000
     8 N8       6.2200 -22.3158  -0.0850   N.4       1 RES1   1.0000
     9 C9       6.6059 -23.0643   1.1517   C.3       1 RES1   0.0000
    10 C10      6.0561 -20.8697   0.2622   C.3       1 RES1   0.0000
    11 C11      7.3373 -22.4295  -1.0737   C.3       1 RES1   0.0000
    12 O12      2.3254 -25.4848   0.2049   O.3       1 RES1   0.0000
    13 H1       4.1530 -26.5614  -2.3497   H         1 RES1   0.0000
    14 H2       5.9082 -24.5726  -1.6318   H         1 RES1   0.0000
    15 H3       4.1396 -22.7746   0.0314   H         1 RES1   0.0000
    16 H4       4.7209 -22.3068  -1.5706   H         1 RES1   0.0000
    17 H5       4.6447 -24.8502   0.9725   H         1 RES1   0.0000
    18 H6       5.6026 -26.0558   0.0828   H         1 RES1   0.0000
    19 H7       3.5393 -27.1574  -0.1076   H         1 RES1   0.0000
    20 H8       5.3921 -20.7460   1.1134   H         1 RES1   0.0000
    21 H9       7.0160 -20.4306   0.5263   H         1 RES1   0.0000
    22 H10      5.6490 -20.3115  -0.5783   H         1 RES1   0.0000
    23 H11      2.1035 -25.8633  -3.5577   H         1 RES1   0.0000
    24 H12      1.7414 -27.1098  -2.3660   H         1 RES1   0.0000
    25 H13      1.3463 -25.4262  -2.0278   H         1 RES1   0.0000
    26 H14      6.8377 -24.1014   0.9183   H         1 RES1   0.0000
    27 H15      7.4827 -22.6171   1.6153   H         1 RES1   0.0000
    28 H16      5.7957 -23.0532   1.8778   H         1 RES1   0.0000
    29 H17      8.2535 -22.0025  -0.6712   H         1 RES1   0.0000
    30 H18      7.5290 -23.4716  -1.3208   H         1 RES1   0.0000
    31 H19      7.0934 -21.9024  -1.9937   H         1 RES1   0.0000
    32 H20      2.3447 -25.5901   1.1881   H         1 RES1   0.0000
@<TRIPOS>BOND
     1     3     6    1
     2     1     7    1
     3     2     3    1
     4     6     8    1
     5     3     4    1
     6     8     9    1
     7     4     5    1
     8     8    10    1
     9     5     1    1
    10     8    11    1
    11     1     2    1
    12     5    12    1
    13     1    13    1
    14     3    14    1
    15     6    15    1
    16     6    16    1
    17     4    17    1
    18     4    18    1
    19     5    19    1
    20    10    20    1
    21    10    21    1
    22    10    22    1
    23     7    23    1
    24     7    24    1
    25     7    25    1
    26     9    26    1
    27     9    27    1
    28     9    28    1
    29    11    29    1
    30    11    30    1
    31    11    31    1
    32    12    32    1
@<TRIPOS>SUBSTRUCTURE
     1 RES1        1 GROUP             0 ****  ****    0  
@<TRIPOS>MOLECULE
SciTegic12231509382D
    32    32     1     0     0
SMALL
USER_CHARGES
****
Generated from the CSD

@<TRIPOS>ATOM
     1 C1       3.3746 -25.8783  -1.9418   C.3       1 RES1   0.0000
     2 O2       3.8745 -24.5700  -2.0587   O.3       1 RES1   0.0000
     3 C3       4.9687 -24.3561  -1.1255   C.3       1 RES1   0.0000
     4 C4       4.7399 -25.3966  -0.0430   C.3       1 RES1   0.0000
     5 C5       4.2090 -26.5779  -0.8400   C.3       1 RES1   0.0000
     6 C6       4.9597 -22.9084  -0.6849   C.3       1 RES1   0.0000
     7 C7       1.9026 -25.7930  -1.6132   C.3       1 RES1   0.0000
     8 N8       6.2165 -22.3190  -0.0745   N.4       1 RES1   1.0000
     9 C9       6.5935 -23.0724   1.1620   C.3       1 RES1   0.0000
    10 C10      6.0514 -20.8741   0.2771   C.3       1 RES1   0.0000
    11 C11      7.3402 -22.4300  -1.0561   C.3       1 RES1   0.0000
    12 O12      3.4467 -27.5009  -0.0605   O.3       1 RES1   0.0000
    13 H1       3.5065 -26.4037  -2.8865   H         1 RES1   0.0000
    14 H2       5.9109 -24.5683  -1.6286   H         1 RES1   0.0000
    15 H3       4.1340 -22.7725   0.0245   H         1 RES1   0.0000
    16 H4       4.7298 -22.3061  -1.5725   H         1 RES1   0.0000
    17 H5       4.0090 -25.0524   0.6873   H         1 RES1   0.0000
    18 H6       5.6695 -25.6488   0.4651   H         1 RES1   0.0000
    19 H7       5.0439 -27.1029  -1.3018   H         1 RES1   0.0000
    20 H8       5.3818 -20.7530   1.1243   H         1 RES1   0.0000
    21 H9       7.0098 -20.4368   0.5491   H         1 RES1   0.0000
    22 H10      5.6503 -20.3125  -0.5641   H         1 RES1   0.0000
    23 H11      1.3621 -25.2675  -2.3977   H         1 RES1   0.0000
    24 H12      1.4717 -26.7869  -1.5121   H         1 RES1   0.0000
    25 H13      1.7464 -25.2592  -0.6781   H         1 RES1   0.0000
    26 H14      6.8257 -24.1089   0.9263   H         1 RES1   0.0000
    27 H15      7.4678 -22.6279   1.6329   H         1 RES1   0.0000
    28 H16      5.7787 -23.0631   1.8829   H         1 RES1   0.0000
    29 H17      8.2536 -22.0038  -0.6465   H         1 RES1   0.0000
    30 H18      7.5338 -23.4714  -1.3046   H         1 RES1   0.0000
    31 H19      7.1022 -21.9006  -1.9763   H         1 RES1   0.0000
    32 H20      4.0241 -27.8962   0.6385   H         1 RES1   0.0000
@<TRIPOS>BOND
     1     3     6    1
     2     1     7    1
     3     2     3    1
     4     6     8    1
     5     3     4    1
     6     8     9    1
     7     4     5    1
     8     8    10    1
     9     5     1    1
    10     8    11    1
    11     1     2    1
    12     5    12    1
    13     1    13    1
    14     3    14    1
    15     6    15    1
    16     6    16    1
    17     4    17    1
    18     4    18    1
    19     5    19    1
    20    10    20    1
    21    10    21    1
    22    10    22    1
    23     7    23    1
    24     7    24    1
    25     7    25    1
    26     9    26    1
    27     9    27    1
    28     9    28    1
    29    11    29    1
    30    11    30    1
    31    11    31    1
    32    12    32    1
@<TRIPOS>SUBSTRUCTURE
     1 RES1        1 GROUP             0 ****  ****    0  
@<TRIPOS>MOLECULE
SciTegic12231509382D
    32    32     1     0     0
SMALL
USER_CHARGES
****
Generated from the CSD

@<TRIPOS>ATOM
     1 C1       2.7725 -25.1271  -1.3366   C.3       1 RES1   0.0000
     2 O2       3.9040 -24.5840  -2.0396   O.3       1 RES1   0.0000
     3 C3       4.9687 -24.3561  -1.1255   C.3       1 RES1   0.0000
     4 C4       4.7239 -25.3529   0.0217   C.3       1 RES1   0.0000
     5 C5       3.2089 -25.3294   0.1290   C.3       1 RES1   0.0000
     6 C6       4.9597 -22.9084  -0.6849   C.3       1 RES1   0.0000
     7 C7       1.5627 -24.2325  -1.4720   C.3       1 RES1   0.0000
     8 N8       6.2368 -22.2990  -0.1399   N.4       1 RES1   1.0000
     9 C9       6.6802 -23.0356   1.0846   C.3       1 RES1   0.0000
    10 C10      6.0717 -20.8524   0.2051   C.3       1 RES1   0.0000
    11 C11      7.3145 -22.4074  -1.1722   C.3       1 RES1   0.0000
    12 O12      2.7707 -24.2109   0.9022   O.3       1 RES1   0.0000
    13 H1       2.5335 -26.0998  -1.7641   H         1 RES1   0.0000
    14 H2       5.9178 -24.5834  -1.6087   H         1 RES1   0.0000
    15 H3       4.1696 -22.7850   0.0661   H         1 RES1   0.0000
    16 H4       4.6750 -22.3104  -1.5595   H         1 RES1   0.0000
    17 H5       5.1930 -25.0182   0.9458   H         1 RES1   0.0000
    18 H6       5.0889 -26.3473  -0.2312   H         1 RES1   0.0000
    19 H7       2.8249 -26.2654   0.5319   H         1 RES1   0.0000
    20 H8       5.4413 -20.7303   1.0817   H         1 RES1   0.0000
    21 H9       7.0367 -20.4018   0.4276   H         1 RES1   0.0000
    22 H10      5.6252 -20.3039  -0.6215   H         1 RES1   0.0000
    23 H11      1.2827 -24.1181  -2.5171   H         1 RES1   0.0000
    24 H12      0.7124 -24.6501  -0.9370   H         1 RES1   0.0000
    25 H13      1.7666 -23.2440  -1.0656   H         1 RES1   0.0000
    26 H14      6.9282 -24.0676   0.8452   H         1 RES1   0.0000
    27 H15      7.5611 -22.5672   1.5187   H         1 RES1   0.0000
    28 H16      5.8941 -23.0417   1.8368   H         1 RES1   0.0000
    29 H17      8.2308 -21.9352  -0.8242   H         1 RES1   0.0000
    30 H18      7.5332 -23.4500  -1.3933   H         1 RES1   0.0000
    31 H19      7.0127 -21.9208  -2.0974   H         1 RES1   0.0000
    32 H20      3.0681 -24.3221   1.8388   H         1 RES1   0.0000
@<TRIPOS>BOND
     1     3     6    1
     2     1     7    1
     3     2     3    1
     4     6     8    1
     5     3     4    1
     6     8     9    1
     7     4     5    1
     8     8    10    1
     9     5     1    1
    10     8    11    1
    11     1     2    1
    12     5    12    1
    13     1    13    1
    14     3    14    1
    15     6    15    1
    16     6    16    1
    17     4    17    1
    18     4    18    1
    19     5    19    1
    20    10    20    1
    21    10    21    1
    22    10    22    1
    23     7    23    1
    24     7    24    1
    25     7    25    1
    26     9    26    1
    27     9    27    1
    28     9    28    1
    29    11    29    1
    30    11    30    1
    31    11    31    1
    32    12    32    1
@<TRIPOS>SUBSTRUCTURE
     1 RES1        1 GROUP             0 ****  ****    0  
@<TRIPOS>MOLECULE
SciTegic12231509382D
    32    32     1     0     0
SMALL
USER_CHARGES
****
Generated from the CSD

@<TRIPOS>ATOM
     1 C1       1.9515 -23.2153  -1.3629   C.3       1 RES1   0.0000
     2 O2       2.7406 -23.8662  -0.3641   O.3       1 RES1   0.0000
     3 C3       3.6878 -22.9308   0.1349   C.3       1 RES1   0.0000
     4 C4       3.0315 -21.5631   0.0109   C.3       1 RES1   0.0000
     5 C5       1.7393 -21.8208  -0.7666   C.3       1 RES1   0.0000
     6 C6       4.9597 -22.9084  -0.6849   C.3       1 RES1   0.0000
     7 C7       2.6253 -23.1503  -2.7134   C.3       1 RES1   0.0000
     8 N8       6.2286 -22.3661  -0.0563   N.4       1 RES1   1.0000
     9 C9       6.5857 -23.1630   1.1586   C.3       1 RES1   0.0000
    10 C10      6.0965 -20.9283   0.3361   C.3       1 RES1   0.0000
    11 C11      7.3514 -22.4751  -1.0393   C.3       1 RES1   0.0000
    12 O12      1.4369 -20.7786  -1.6956   O.3       1 RES1   0.0000
    13 H1       0.9921 -23.7218  -1.4575   H         1 RES1   0.0000
    14 H2       3.9158 -23.1459   1.1778   H         1 RES1   0.0000
    15 H3       4.7623 -22.3462  -1.6060   H         1 RES1   0.0000
    16 H4       5.1711 -23.9452  -0.9742   H         1 RES1   0.0000
    17 H5       3.6768 -20.8756  -0.5340   H         1 RES1   0.0000
    18 H6       2.8120 -21.1519   0.9951   H         1 RES1   0.0000
    19 H7       0.9214 -21.8815  -0.0502   H         1 RES1   0.0000
    20 H8       5.4283 -20.8159   1.1856   H         1 RES1   0.0000
    21 H9       7.0642 -20.5213   0.6218   H         1 RES1   0.0000
    22 H10      5.7101 -20.3337  -0.4891   H         1 RES1   0.0000
    23 H11      3.4363 -23.8730  -2.7750   H         1 RES1   0.0000
    24 H12      1.9161 -23.3682  -3.5092   H         1 RES1   0.0000
    25 H13      3.0396 -22.1600  -2.8905   H         1 RES1   0.0000
    26 H14      6.7267 -24.2114   0.9044   H         1 RES1   0.0000
    27 H15      7.5078 -22.7952   1.6038   H         1 RES1   0.0000
    28 H16      5.7988 -23.0986   1.9071   H         1 RES1   0.0000
    29 H17      8.2788 -22.1038  -0.6083   H         1 RES1   0.0000
    30 H18      7.5058 -23.5107  -1.3350   H         1 RES1   0.0000
    31 H19      7.1377 -21.8952  -1.9347   H         1 RES1   0.0000
    32 H20      1.3441 -19.9221  -1.2099   H         1 RES1   0.0000
@<TRIPOS>BOND
     1     3     6    1
     2     1     7    1
     3     2     3    1
     4     6     8    1
     5     3     4    1
     6     8     9    1
     7     4     5    1
     8     8    10    1
     9     5     1    1
    10     8    11    1
    11     1     2    1
    12     5    12    1
    13     1    13    1
    14     3    14    1
    15     6    15    1
    16     6    16    1
    17     4    17    1
    18     4    18    1
    19     5    19    1
    20    10    20    1
    21    10    21    1
    22    10    22    1
    23     7    23    1
    24     7    24    1
    25     7    25    1
    26     9    26    1
    27     9    27    1
    28     9    28    1
    29    11    29    1
    30    11    30    1
    31    11    31    1
    32    12    32    1
@<TRIPOS>SUBSTRUCTURE
     1 RES1        1 GROUP             0 ****  ****    0  
