@<TRIPOS>MOLECULE
ACHOLC
    26    25     1     0     0
SMALL
USER_CHARGES
****
Generated from the CSD

@<TRIPOS>ATOM
     1 C1      -1.9168   6.6841   1.9955   C.3       1 RES1   0.0000
     2 C2      -1.8457   4.3036   1.5532   C.3       1 RES1   0.0000
     3 C3      -0.2459   5.7783   0.4730   C.3       1 RES1   0.0000
     4 C4      -0.0392   5.2997   2.8841   C.3       1 RES1   0.0000
     5 C5       0.9488   4.1612   2.7614   C.3       1 RES1   0.0000
     6 C6       1.0869   1.8063   3.0202   C.2       1 RES1   0.0000
     7 C7       0.3275   0.5677   3.3580   C.3       1 RES1   0.0000
     8 N1      -1.0035   5.5263   1.7384   N.4       1 RES1   1.0000
     9 O1       0.3174   2.8960   3.0903   O.3       1 RES1   0.0000
    10 O2       2.2429   1.8513   2.7036   O.2       1 RES1   0.0000
    11 H1      -2.4418   6.5600   2.9403   H         1 RES1   0.0000
    12 H2      -1.3634   7.6195   2.0324   H         1 RES1   0.0000
    13 H3      -2.6596   6.7676   1.2049   H         1 RES1   0.0000
    14 H4      -2.5559   4.4438   0.7410   H         1 RES1   0.0000
    15 H5      -1.2264   3.4408   1.3168   H         1 RES1   0.0000
    16 H6      -2.4061   4.0805   2.4587   H         1 RES1   0.0000
    17 H7       1.8064   4.3386   3.4220   H         1 RES1   0.0000
    18 H8       1.3283   4.1175   1.7331   H         1 RES1   0.0000
    19 H9       0.4231   6.6288   0.5869   H         1 RES1   0.0000
    20 H10      0.3521   4.9107   0.2022   H         1 RES1   0.0000
    21 H11     -0.9269   5.9904  -0.3485   H         1 RES1   0.0000
    22 H12      0.5203   6.2274   3.0566   H         1 RES1   0.0000
    23 H13     -0.6430   5.1092   3.7800   H         1 RES1   0.0000
    24 H14     -0.1258   0.1382   2.4670   H         1 RES1   0.0000
    25 H15      0.9845  -0.1797   3.7979   H         1 RES1   0.0000
    26 H16     -0.4653   0.7838   4.0710   H         1 RES1   0.0000
@<TRIPOS>BOND
     1     4     5    1
     2     6     7    1
     3     8     1    1
     4     9     5    1
     5    10     6    2
     6     2     8    1
     7     3     8    1
     8     4     8    1
     9     6     9    1
    10     1    11    1
    11     1    12    1
    12     1    13    1
    13     2    14    1
    14     2    15    1
    15     2    16    1
    16     5    17    1
    17     5    18    1
    18     3    19    1
    19     3    20    1
    20     3    21    1
    21     4    22    1
    22     4    23    1
    23     7    24    1
    24     7    25    1
    25     7    26    1
@<TRIPOS>SUBSTRUCTURE
     1 RES1        1 GROUP             0 ****  ****    0  
@<TRIPOS>MOLECULE
ACHOLC
    26    25     1     0     0
SMALL
USER_CHARGES
****
Generated from the CSD

@<TRIPOS>ATOM
     1 C1      -1.9255   6.6760   2.0012   C.3       1 RES1   0.0000
     2 C2      -1.8485   4.2947   1.5637   C.3       1 RES1   0.0000
     3 C3      -0.2586   5.7725   0.4730   C.3       1 RES1   0.0000
     4 C4      -0.0392   5.2997   2.8841   C.3       1 RES1   0.0000
     5 C5       0.9488   4.1612   2.7614   C.3       1 RES1   0.0000
     6 C6       3.0211   3.6229   1.7378   C.2       1 RES1   0.0000
     7 C7       4.1315   4.1354   0.8839   C.3       1 RES1   0.0000
     8 N1      -1.0095   5.5206   1.7424   N.4       1 RES1   1.0000
     9 O1       2.0728   4.5447   1.9264   O.3       1 RES1   0.0000
    10 O2       2.9641   2.5286   2.2255   O.2       1 RES1   0.0000
    11 H1      -2.4457   6.5521   2.9487   H         1 RES1   0.0000
    12 H2      -1.3750   7.6132   2.0336   H         1 RES1   0.0000
    13 H3      -2.6722   6.7553   1.2139   H         1 RES1   0.0000
    14 H4      -2.5763   4.4381   0.7677   H         1 RES1   0.0000
    15 H5      -1.2294   3.4378   1.3066   H         1 RES1   0.0000
    16 H6      -2.3886   4.0603   2.4786   H         1 RES1   0.0000
    17 H7       0.4505   3.2783   2.3424   H         1 RES1   0.0000
    18 H8       1.3173   3.8897   3.7584   H         1 RES1   0.0000
    19 H9       0.3572   6.6653   0.5598   H         1 RES1   0.0000
    20 H10      0.3925   4.9333   0.2370   H         1 RES1   0.0000
    21 H11     -0.9447   5.9136  -0.3595   H         1 RES1   0.0000
    22 H12      0.5207   6.2284   3.0495   H         1 RES1   0.0000
    23 H13     -0.6382   5.1129   3.7839   H         1 RES1   0.0000
    24 H14      4.9009   4.6054   1.4928   H         1 RES1   0.0000
    25 H15      4.5916   3.3251   0.3222   H         1 RES1   0.0000
    26 H16      3.7632   4.8733   0.1742   H         1 RES1   0.0000
@<TRIPOS>BOND
     1     4     5    1
     2     6     7    1
     3     8     1    1
     4     9     5    1
     5    10     6    2
     6     2     8    1
     7     3     8    1
     8     4     8    1
     9     6     9    1
    10     1    11    1
    11     1    12    1
    12     1    13    1
    13     2    14    1
    14     2    15    1
    15     2    16    1
    16     5    17    1
    17     5    18    1
    18     3    19    1
    19     3    20    1
    20     3    21    1
    21     4    22    1
    22     4    23    1
    23     7    24    1
    24     7    25    1
    25     7    26    1
@<TRIPOS>SUBSTRUCTURE
     1 RES1        1 GROUP             0 ****  ****    0  
@<TRIPOS>MOLECULE
ACHOLC
    26    25     1     0     0
SMALL
USER_CHARGES
****
Generated from the CSD

@<TRIPOS>ATOM
     1 C1      -1.9219   6.6793   1.9989   C.3       1 RES1   0.0000
     2 C2      -1.8473   4.2984   1.5593   C.3       1 RES1   0.0000
     3 C3      -0.2533   5.7750   0.4730   C.3       1 RES1   0.0000
     4 C4      -0.0392   5.2997   2.8841   C.3       1 RES1   0.0000
     5 C5       0.9488   4.1612   2.7614   C.3       1 RES1   0.0000
     6 C6       2.7170   3.1203   3.9538   C.2       1 RES1   0.0000
     7 C7       3.5117   3.1308   5.2160   C.3       1 RES1   0.0000
     8 N1      -1.0070   5.5230   1.7407   N.4       1 RES1   1.0000
     9 O1       1.7969   4.0885   3.9375   O.3       1 RES1   0.0000
    10 O2       2.8507   2.3412   3.0517   O.2       1 RES1   0.0000
    11 H1      -2.4442   6.5552   2.9452   H         1 RES1   0.0000
    12 H2      -1.3703   7.6158   2.0332   H         1 RES1   0.0000
    13 H3      -2.6670   6.7604   1.2102   H         1 RES1   0.0000
    14 H4      -2.5447   4.4279   0.7343   H         1 RES1   0.0000
    15 H5      -1.2251   3.4321   1.3443   H         1 RES1   0.0000
    16 H6      -2.4218   4.0881   2.4590   H         1 RES1   0.0000
    17 H7       1.5615   4.2942   1.8613   H         1 RES1   0.0000
    18 H8       0.4033   3.2158   2.6521   H         1 RES1   0.0000
    19 H9       0.3623   6.6677   0.5613   H         1 RES1   0.0000
    20 H10      0.3982   4.9358   0.2383   H         1 RES1   0.0000
    21 H11     -0.9376   5.9163  -0.3609   H         1 RES1   0.0000
    22 H12      0.5206   6.2280   3.0525   H         1 RES1   0.0000
    23 H13     -0.6402   5.1114   3.7823   H         1 RES1   0.0000
    24 H14      3.0405   2.5081   5.9736   H         1 RES1   0.0000
    25 H15      4.5165   2.7513   5.0423   H         1 RES1   0.0000
    26 H16      3.5946   4.1411   5.6112   H         1 RES1   0.0000
@<TRIPOS>BOND
     1     4     5    1
     2     6     7    1
     3     8     1    1
     4     9     5    1
     5    10     6    2
     6     2     8    1
     7     3     8    1
     8     4     8    1
     9     6     9    1
    10     1    11    1
    11     1    12    1
    12     1    13    1
    13     2    14    1
    14     2    15    1
    15     2    16    1
    16     5    17    1
    17     5    18    1
    18     3    19    1
    19     3    20    1
    20     3    21    1
    21     4    22    1
    22     4    23    1
    23     7    24    1
    24     7    25    1
    25     7    26    1
@<TRIPOS>SUBSTRUCTURE
     1 RES1        1 GROUP             0 ****  ****    0  
@<TRIPOS>MOLECULE
ACHOLC
    26    25     1     0     0
SMALL
USER_CHARGES
****
Generated from the CSD

@<TRIPOS>ATOM
     1 C1      -1.9168   6.6842   1.9955   C.3       1 RES1   0.0000
     2 C2      -1.8457   4.3036   1.5533   C.3       1 RES1   0.0000
     3 C3      -0.2459   5.7783   0.4730   C.3       1 RES1   0.0000
     4 C4      -0.0392   5.2997   2.8841   C.3       1 RES1   0.0000
     5 C5       0.9488   4.1612   2.7614   C.3       1 RES1   0.0000
     6 C6       0.2490   2.5795   4.3863   C.2       1 RES1   0.0000
     7 C7      -0.3952   1.2512   4.6001   C.3       1 RES1   0.0000
     8 N1      -1.0035   5.5263   1.7384   N.4       1 RES1   1.0000
     9 O1       0.3174   2.8960   3.0903   O.3       1 RES1   0.0000
    10 O2       0.6792   3.2931   5.2490   O.2       1 RES1   0.0000
    11 H1      -2.4418   6.5600   2.9403   H         1 RES1   0.0000
    12 H2      -1.3633   7.6195   2.0324   H         1 RES1   0.0000
    13 H3      -2.6596   6.7676   1.2049   H         1 RES1   0.0000
    14 H4      -2.5563   4.4440   0.7414   H         1 RES1   0.0000
    15 H5      -1.2265   3.4410   1.3163   H         1 RES1   0.0000
    16 H6      -2.4057   4.0802   2.4589   H         1 RES1   0.0000
    17 H7       1.8064   4.3386   3.4220   H         1 RES1   0.0000
    18 H8       1.3283   4.1175   1.7331   H         1 RES1   0.0000
    19 H9       0.4235   6.6284   0.5871   H         1 RES1   0.0000
    20 H10      0.3516   4.9104   0.2019   H         1 RES1   0.0000
    21 H11     -0.9269   5.9910  -0.3484   H         1 RES1   0.0000
    22 H12      0.5203   6.2274   3.0566   H         1 RES1   0.0000
    23 H13     -0.6430   5.1092   3.7800   H         1 RES1   0.0000
    24 H14      0.3469   0.4558   4.5852   H         1 RES1   0.0000
    25 H15     -0.9059   1.2203   5.5603   H         1 RES1   0.0000
    26 H16     -1.1264   1.0472   3.8207   H         1 RES1   0.0000
@<TRIPOS>BOND
     1     4     5    1
     2     6     7    1
     3     8     1    1
     4     9     5    1
     5    10     6    2
     6     2     8    1
     7     3     8    1
     8     4     8    1
     9     6     9    1
    10     1    11    1
    11     1    12    1
    12     1    13    1
    13     2    14    1
    14     2    15    1
    15     2    16    1
    16     5    17    1
    17     5    18    1
    18     3    19    1
    19     3    20    1
    20     3    21    1
    21     4    22    1
    22     4    23    1
    23     7    24    1
    24     7    25    1
    25     7    26    1
@<TRIPOS>SUBSTRUCTURE
     1 RES1        1 GROUP             0 ****  ****    0  
@<TRIPOS>MOLECULE
ACHOLC
    26    25     1     0     0
SMALL
USER_CHARGES
****
Generated from the CSD

@<TRIPOS>ATOM
     1 C1      -1.9253   6.6761   2.0011   C.3       1 RES1   0.0000
     2 C2      -1.8485   4.2949   1.5636   C.3       1 RES1   0.0000
     3 C3      -0.2584   5.7725   0.4730   C.3       1 RES1   0.0000
     4 C4      -0.0392   5.2997   2.8841   C.3       1 RES1   0.0000
     5 C5       0.9488   4.1612   2.7614   C.3       1 RES1   0.0000
     6 C6       3.0561   5.2259   2.5211   C.2       1 RES1   0.0000
     7 C7       4.1464   5.5753   1.5650   C.3       1 RES1   0.0000
     8 N1      -1.0094   5.5207   1.7423   N.4       1 RES1   1.0000
     9 O1       2.0728   4.5447   1.9264   O.3       1 RES1   0.0000
    10 O2       3.0266   5.5202   3.6835   O.2       1 RES1   0.0000
    11 H1      -2.4456   6.5523   2.9486   H         1 RES1   0.0000
    12 H2      -1.3748   7.6133   2.0336   H         1 RES1   0.0000
    13 H3      -2.6720   6.7555   1.2138   H         1 RES1   0.0000
    14 H4      -2.5777   4.4391   0.7691   H         1 RES1   0.0000
    15 H5      -1.2297   3.4384   1.3043   H         1 RES1   0.0000
    16 H6      -2.3870   4.0592   2.4792   H         1 RES1   0.0000
    17 H7       0.4505   3.2783   2.3424   H         1 RES1   0.0000
    18 H8       1.3173   3.8897   3.7584   H         1 RES1   0.0000
    19 H9       0.3572   6.6654   0.5597   H         1 RES1   0.0000
    20 H10      0.3928   4.9334   0.2372   H         1 RES1   0.0000
    21 H11     -0.9445   5.9134  -0.3596   H         1 RES1   0.0000
    22 H12      0.5207   6.2284   3.0496   H         1 RES1   0.0000
    23 H13     -0.6383   5.1129   3.7839   H         1 RES1   0.0000
    24 H14      3.9517   6.5356   1.0922   H         1 RES1   0.0000
    25 H15      5.1038   5.6380   2.0781   H         1 RES1   0.0000
    26 H16      4.2295   4.8232   0.7832   H         1 RES1   0.0000
@<TRIPOS>BOND
     1     4     5    1
     2     6     7    1
     3     8     1    1
     4     9     5    1
     5    10     6    2
     6     2     8    1
     7     3     8    1
     8     4     8    1
     9     6     9    1
    10     1    11    1
    11     1    12    1
    12     1    13    1
    13     2    14    1
    14     2    15    1
    15     2    16    1
    16     5    17    1
    17     5    18    1
    18     3    19    1
    19     3    20    1
    20     3    21    1
    21     4    22    1
    22     4    23    1
    23     7    24    1
    24     7    25    1
    25     7    26    1
@<TRIPOS>SUBSTRUCTURE
     1 RES1        1 GROUP             0 ****  ****    0  
@<TRIPOS>MOLECULE
ACHOLC
    26    25     1     0     0
SMALL
USER_CHARGES
****
Generated from the CSD

@<TRIPOS>ATOM
     1 C1      -1.9219   6.6793   1.9989   C.3       1 RES1   0.0000
     2 C2      -1.8473   4.2984   1.5593   C.3       1 RES1   0.0000
     3 C3      -0.2533   5.7750   0.4730   C.3       1 RES1   0.0000
     4 C4      -0.0392   5.2997   2.8841   C.3       1 RES1   0.0000
     5 C5       0.9488   4.1612   2.7614   C.3       1 RES1   0.0000
     6 C6       2.8626   4.8937   3.9584   C.2       1 RES1   0.0000
     7 C7       3.6697   4.7142   5.1999   C.3       1 RES1   0.0000
     8 N1      -1.0070   5.5230   1.7407   N.4       1 RES1   1.0000
     9 O1       1.7969   4.0885   3.9375   O.3       1 RES1   0.0000
    10 O2       3.1204   5.6473   3.0616   O.2       1 RES1   0.0000
    11 H1      -2.4442   6.5552   2.9452   H         1 RES1   0.0000
    12 H2      -1.3703   7.6158   2.0332   H         1 RES1   0.0000
    13 H3      -2.6670   6.7604   1.2102   H         1 RES1   0.0000
    14 H4      -2.5447   4.4279   0.7343   H         1 RES1   0.0000
    15 H5      -1.2251   3.4321   1.3443   H         1 RES1   0.0000
    16 H6      -2.4218   4.0881   2.4590   H         1 RES1   0.0000
    17 H7       1.5615   4.2942   1.8613   H         1 RES1   0.0000
    18 H8       0.4033   3.2158   2.6521   H         1 RES1   0.0000
    19 H9       0.3623   6.6677   0.5613   H         1 RES1   0.0000
    20 H10      0.3982   4.9358   0.2383   H         1 RES1   0.0000
    21 H11     -0.9376   5.9163  -0.3609   H         1 RES1   0.0000
    22 H12      0.5206   6.2280   3.0525   H         1 RES1   0.0000
    23 H13     -0.6402   5.1114   3.7823   H         1 RES1   0.0000
    24 H14      4.4251   3.9436   5.0607   H         1 RES1   0.0000
    25 H15      4.1750   5.6395   5.4685   H         1 RES1   0.0000
    26 H16      3.0352   4.4202   6.0333   H         1 RES1   0.0000
@<TRIPOS>BOND
     1     4     5    1
     2     6     7    1
     3     8     1    1
     4     9     5    1
     5    10     6    2
     6     2     8    1
     7     3     8    1
     8     4     8    1
     9     6     9    1
    10     1    11    1
    11     1    12    1
    12     1    13    1
    13     2    14    1
    14     2    15    1
    15     2    16    1
    16     5    17    1
    17     5    18    1
    18     3    19    1
    19     3    20    1
    20     3    21    1
    21     4    22    1
    22     4    23    1
    23     7    24    1
    24     7    25    1
    25     7    26    1
@<TRIPOS>SUBSTRUCTURE
     1 RES1        1 GROUP             0 ****  ****    0  
@<TRIPOS>MOLECULE
ACHOLC
    26    25     1     0     0
SMALL
USER_CHARGES
****
Generated from the CSD

@<TRIPOS>ATOM
     1 C1      -1.9219   6.6793   1.9989   C.3       1 RES1   0.0000
     2 C2      -1.8473   4.2984   1.5593   C.3       1 RES1   0.0000
     3 C3      -0.2533   5.7750   0.4730   C.3       1 RES1   0.0000
     4 C4      -0.0392   5.2997   2.8841   C.3       1 RES1   0.0000
     5 C5       0.9488   4.1612   2.7614   C.3       1 RES1   0.0000
     6 C6       1.3020   3.4373   4.9937   C.2       1 RES1   0.0000
     7 C7       2.2532   3.4392   6.1427   C.3       1 RES1   0.0000
     8 N1      -1.0070   5.5230   1.7407   N.4       1 RES1   1.0000
     9 O1       1.7969   4.0885   3.9375   O.3       1 RES1   0.0000
    10 O2       0.2120   2.9368   4.9913   O.2       1 RES1   0.0000
    11 H1      -2.4442   6.5552   2.9452   H         1 RES1   0.0000
    12 H2      -1.3703   7.6158   2.0332   H         1 RES1   0.0000
    13 H3      -2.6670   6.7604   1.2102   H         1 RES1   0.0000
    14 H4      -2.5447   4.4279   0.7343   H         1 RES1   0.0000
    15 H5      -1.2251   3.4321   1.3443   H         1 RES1   0.0000
    16 H6      -2.4218   4.0881   2.4590   H         1 RES1   0.0000
    17 H7       1.5615   4.2942   1.8613   H         1 RES1   0.0000
    18 H8       0.4033   3.2158   2.6521   H         1 RES1   0.0000
    19 H9       0.3623   6.6677   0.5613   H         1 RES1   0.0000
    20 H10      0.3982   4.9358   0.2383   H         1 RES1   0.0000
    21 H11     -0.9376   5.9163  -0.3609   H         1 RES1   0.0000
    22 H12      0.5206   6.2280   3.0525   H         1 RES1   0.0000
    23 H13     -0.6402   5.1114   3.7823   H         1 RES1   0.0000
    24 H14      2.0919   4.3093   6.7756   H         1 RES1   0.0000
    25 H15      2.1230   2.5476   6.7526   H         1 RES1   0.0000
    26 H16      3.2826   3.4619   5.7911   H         1 RES1   0.0000
@<TRIPOS>BOND
     1     4     5    1
     2     6     7    1
     3     8     1    1
     4     9     5    1
     5    10     6    2
     6     2     8    1
     7     3     8    1
     8     4     8    1
     9     6     9    1
    10     1    11    1
    11     1    12    1
    12     1    13    1
    13     2    14    1
    14     2    15    1
    15     2    16    1
    16     5    17    1
    17     5    18    1
    18     3    19    1
    19     3    20    1
    20     3    21    1
    21     4    22    1
    22     4    23    1
    23     7    24    1
    24     7    25    1
    25     7    26    1
@<TRIPOS>SUBSTRUCTURE
     1 RES1        1 GROUP             0 ****  ****    0  
@<TRIPOS>MOLECULE
ACHOLC
    26    25     1     0     0
SMALL
USER_CHARGES
****
Generated from the CSD

@<TRIPOS>ATOM
     1 C1      -1.9167   6.6842   1.9955   C.3       1 RES1   0.0000
     2 C2      -1.8457   4.3036   1.5531   C.3       1 RES1   0.0000
     3 C3      -0.2458   5.7784   0.4730   C.3       1 RES1   0.0000
     4 C4      -0.0392   5.2997   2.8841   C.3       1 RES1   0.0000
     5 C5       0.9488   4.1612   2.7614   C.3       1 RES1   0.0000
     6 C6       0.3043   1.9659   2.1315   C.2       1 RES1   0.0000
     7 C7      -0.3860   0.7204   2.5757   C.3       1 RES1   0.0000
     8 N1      -1.0034   5.5263   1.7384   N.4       1 RES1   1.0000
     9 O1       0.3174   2.8960   3.0903   O.3       1 RES1   0.0000
    10 O2       0.7843   2.1488   1.0477   O.2       1 RES1   0.0000
    11 H1      -2.4418   6.5600   2.9402   H         1 RES1   0.0000
    12 H2      -1.3633   7.6195   2.0324   H         1 RES1   0.0000
    13 H3      -2.6595   6.7677   1.2049   H         1 RES1   0.0000
    14 H4      -2.8082   4.5609   1.1159   H         1 RES1   0.0000
    15 H5      -1.3531   3.5923   0.8936   H         1 RES1   0.0000
    16 H6      -2.0271   3.8122   2.5067   H         1 RES1   0.0000
    17 H7       1.8064   4.3386   3.4220   H         1 RES1   0.0000
    18 H8       1.3283   4.1175   1.7331   H         1 RES1   0.0000
    19 H9       0.5641   6.4848   0.6426   H         1 RES1   0.0000
    20 H10      0.1844   4.8551   0.0906   H         1 RES1   0.0000
    21 H11     -0.8999   6.1901  -0.2927   H         1 RES1   0.0000
    22 H12      0.5203   6.2274   3.0566   H         1 RES1   0.0000
    23 H13     -0.6430   5.1092   3.7799   H         1 RES1   0.0000
    24 H14     -1.4500   0.7690   2.3537   H         1 RES1   0.0000
    25 H15      0.0263  -0.1503   2.0701   H         1 RES1   0.0000
    26 H16     -0.2697   0.5764   3.6479   H         1 RES1   0.0000
@<TRIPOS>BOND
     1     4     5    1
     2     6     7    1
     3     8     1    1
     4     9     5    1
     5    10     6    2
     6     2     8    1
     7     3     8    1
     8     4     8    1
     9     6     9    1
    10     1    11    1
    11     1    12    1
    12     1    13    1
    13     2    14    1
    14     2    15    1
    15     2    16    1
    16     5    17    1
    17     5    18    1
    18     3    19    1
    19     3    20    1
    20     3    21    1
    21     4    22    1
    22     4    23    1
    23     7    24    1
    24     7    25    1
    25     7    26    1
@<TRIPOS>SUBSTRUCTURE
     1 RES1        1 GROUP             0 ****  ****    0  
@<TRIPOS>MOLECULE
ACHOLC
    26    25     1     0     0
SMALL
USER_CHARGES
****
Generated from the CSD

@<TRIPOS>ATOM
     1 C1      -1.9254   6.6761   2.0012   C.3       1 RES1   0.0000
     2 C2      -1.8484   4.2948   1.5635   C.3       1 RES1   0.0000
     3 C3      -0.2584   5.7727   0.4730   C.3       1 RES1   0.0000
     4 C4      -0.0392   5.2997   2.8841   C.3       1 RES1   0.0000
     5 C5       0.9488   4.1612   2.7614   C.3       1 RES1   0.0000
     6 C6       2.2741   3.8196   0.8227   C.2       1 RES1   0.0000
     7 C7       3.4662   4.2898   0.0593   C.3       1 RES1   0.0000
     8 N1      -1.0094   5.5207   1.7423   N.4       1 RES1   1.0000
     9 O1       2.0728   4.5447   1.9264   O.3       1 RES1   0.0000
    10 O2       1.5714   2.8960   0.5196   O.2       1 RES1   0.0000
    11 H1      -2.4457   6.5521   2.9486   H         1 RES1   0.0000
    12 H2      -1.3749   7.6133   2.0337   H         1 RES1   0.0000
    13 H3      -2.6720   6.7555   1.2138   H         1 RES1   0.0000
    14 H4      -2.6828   4.4929   0.8939   H         1 RES1   0.0000
    15 H5      -1.2600   3.4831   1.1409   H         1 RES1   0.0000
    16 H6      -2.2512   3.9606   2.5173   H         1 RES1   0.0000
    17 H7       0.4505   3.2783   2.3424   H         1 RES1   0.0000
    18 H8       1.3173   3.8897   3.7584   H         1 RES1   0.0000
    19 H9       0.6521   6.3353   0.6687   H         1 RES1   0.0000
    20 H10      0.0187   4.8348  -0.0039   H         1 RES1   0.0000
    21 H11     -0.8651   6.3428  -0.2274   H         1 RES1   0.0000
    22 H12      0.5207   6.2284   3.0497   H         1 RES1   0.0000
    23 H13     -0.6383   5.1129   3.7839   H         1 RES1   0.0000
    24 H14      4.3657   3.7780   0.3951   H         1 RES1   0.0000
    25 H15      3.3436   4.0970  -1.0044   H         1 RES1   0.0000
    26 H16      3.6139   5.3591   0.1951   H         1 RES1   0.0000
@<TRIPOS>BOND
     1     4     5    1
     2     6     7    1
     3     8     1    1
     4     9     5    1
     5    10     6    2
     6     2     8    1
     7     3     8    1
     8     4     8    1
     9     6     9    1
    10     1    11    1
    11     1    12    1
    12     1    13    1
    13     2    14    1
    14     2    15    1
    15     2    16    1
    16     5    17    1
    17     5    18    1
    18     3    19    1
    19     3    20    1
    20     3    21    1
    21     4    22    1
    22     4    23    1
    23     7    24    1
    24     7    25    1
    25     7    26    1
@<TRIPOS>SUBSTRUCTURE
     1 RES1        1 GROUP             0 ****  ****    0  
@<TRIPOS>MOLECULE
ACHOLC
    26    25     1     0     0
SMALL
USER_CHARGES
****
Generated from the CSD

@<TRIPOS>ATOM
     1 C1      -1.9171   6.6839   1.9957   C.3       1 RES1   0.0000
     2 C2      -1.8457   4.3033   1.5534   C.3       1 RES1   0.0000
     3 C3      -0.2462   5.7783   0.4730   C.3       1 RES1   0.0000
     4 C4      -0.0392   5.2997   2.8841   C.3       1 RES1   0.0000
     5 C5       0.9488   4.1612   2.7614   C.3       1 RES1   0.0000
     6 C6       1.0855   1.8056   3.0149   C.2       1 RES1   0.0000
     7 C7       2.4845   2.1384   2.6189   C.3       1 RES1   0.0000
     8 N1      -1.0036   5.5261   1.7385   N.4       1 RES1   1.0000
     9 O1       0.3174   2.8960   3.0903   O.3       1 RES1   0.0000
    10 O2       0.6724   0.7065   3.2596   O.2       1 RES1   0.0000
    11 H1      -2.4420   6.5596   2.9405   H         1 RES1   0.0000
    12 H2      -1.3638   7.6193   2.0326   H         1 RES1   0.0000
    13 H3      -2.6600   6.7672   1.2052   H         1 RES1   0.0000
    14 H4      -2.5598   4.4455   0.7450   H         1 RES1   0.0000
    15 H5      -1.2268   3.4419   1.3112   H         1 RES1   0.0000
    16 H6      -2.4016   4.0769   2.4608   H         1 RES1   0.0000
    17 H7       1.8064   4.3386   3.4220   H         1 RES1   0.0000
    18 H8       1.3283   4.1175   1.7331   H         1 RES1   0.0000
    19 H9       0.4204   6.6308   0.5859   H         1 RES1   0.0000
    20 H10      0.3542   4.9119   0.2037   H         1 RES1   0.0000
    21 H11     -0.9275   5.9874  -0.3491   H         1 RES1   0.0000
    22 H12      0.5203   6.2274   3.0564   H         1 RES1   0.0000
    23 H13     -0.6429   5.1093   3.7801   H         1 RES1   0.0000
    24 H14      2.9393   2.8138   3.3405   H         1 RES1   0.0000
    25 H15      3.0945   1.2390   2.5652   H         1 RES1   0.0000
    26 H16      2.5050   2.6205   1.6438   H         1 RES1   0.0000
@<TRIPOS>BOND
     1     4     5    1
     2     6     7    1
     3     8     1    1
     4     9     5    1
     5    10     6    2
     6     2     8    1
     7     3     8    1
     8     4     8    1
     9     6     9    1
    10     1    11    1
    11     1    12    1
    12     1    13    1
    13     2    14    1
    14     2    15    1
    15     2    16    1
    16     5    17    1
    17     5    18    1
    18     3    19    1
    19     3    20    1
    20     3    21    1
    21     4    22    1
    22     4    23    1
    23     7    24    1
    24     7    25    1
    25     7    26    1
@<TRIPOS>SUBSTRUCTURE
     1 RES1        1 GROUP             0 ****  ****    0  
@<TRIPOS>MOLECULE
ACHOLC
    26    25     1     0     0
SMALL
USER_CHARGES
****
Generated from the CSD

@<TRIPOS>ATOM
     1 C1      -1.9253   6.6761   2.0011   C.3       1 RES1   0.0000
     2 C2      -1.8483   4.2949   1.5633   C.3       1 RES1   0.0000
     3 C3      -0.2582   5.7728   0.4730   C.3       1 RES1   0.0000
     4 C4      -0.0392   5.2997   2.8841   C.3       1 RES1   0.0000
     5 C5       0.9488   4.1612   2.7614   C.3       1 RES1   0.0000
     6 C6       3.0237   3.6248   1.7423   C.2       1 RES1   0.0000
     7 C7       2.7016   2.3461   2.4395   C.3       1 RES1   0.0000
     8 N1      -1.0093   5.5208   1.7423   N.4       1 RES1   1.0000
     9 O1       2.0728   4.5447   1.9264   O.3       1 RES1   0.0000
    10 O2       3.9997   3.8292   1.0758   O.2       1 RES1   0.0000
    11 H1      -2.4457   6.5522   2.9485   H         1 RES1   0.0000
    12 H2      -1.3748   7.6134   2.0337   H         1 RES1   0.0000
    13 H3      -2.6719   6.7556   1.2137   H         1 RES1   0.0000
    14 H4      -2.5760   4.4384   0.7674   H         1 RES1   0.0000
    15 H5      -1.2292   3.4380   1.3061   H         1 RES1   0.0000
    16 H6      -2.3885   4.0604   2.4782   H         1 RES1   0.0000
    17 H7       0.4505   3.2783   2.3424   H         1 RES1   0.0000
    18 H8       1.3173   3.8897   3.7584   H         1 RES1   0.0000
    19 H9       0.3572   6.6658   0.5599   H         1 RES1   0.0000
    20 H10      0.3932   4.9338   0.2373   H         1 RES1   0.0000
    21 H11     -0.9442   5.9136  -0.3596   H         1 RES1   0.0000
    22 H12      0.5207   6.2284   3.0497   H         1 RES1   0.0000
    23 H13     -0.6384   5.1128   3.7838   H         1 RES1   0.0000
    24 H14      1.7652   1.9316   2.0718   H         1 RES1   0.0000
    25 H15      3.4855   1.6096   2.2761   H         1 RES1   0.0000
    26 H16      2.6041   2.5052   3.5113   H         1 RES1   0.0000
@<TRIPOS>BOND
     1     4     5    1
     2     6     7    1
     3     8     1    1
     4     9     5    1
     5    10     6    2
     6     2     8    1
     7     3     8    1
     8     4     8    1
     9     6     9    1
    10     1    11    1
    11     1    12    1
    12     1    13    1
    13     2    14    1
    14     2    15    1
    15     2    16    1
    16     5    17    1
    17     5    18    1
    18     3    19    1
    19     3    20    1
    20     3    21    1
    21     4    22    1
    22     4    23    1
    23     7    24    1
    24     7    25    1
    25     7    26    1
@<TRIPOS>SUBSTRUCTURE
     1 RES1        1 GROUP             0 ****  ****    0  
@<TRIPOS>MOLECULE
ACHOLC
    26    25     1     0     0
SMALL
USER_CHARGES
****
Generated from the CSD

@<TRIPOS>ATOM
     1 C1      -1.9219   6.6793   1.9989   C.3       1 RES1   0.0000
     2 C2      -1.8473   4.2984   1.5593   C.3       1 RES1   0.0000
     3 C3      -0.2533   5.7750   0.4730   C.3       1 RES1   0.0000
     4 C4      -0.0392   5.2997   2.8841   C.3       1 RES1   0.0000
     5 C5       0.9488   4.1612   2.7614   C.3       1 RES1   0.0000
     6 C6       2.7133   3.1168   3.9562   C.2       1 RES1   0.0000
     7 C7       2.6836   2.3016   2.7074   C.3       1 RES1   0.0000
     8 N1      -1.0070   5.5230   1.7407   N.4       1 RES1   1.0000
     9 O1       1.7969   4.0885   3.9375   O.3       1 RES1   0.0000
    10 O2       3.4664   2.9569   4.8760   O.2       1 RES1   0.0000
    11 H1      -2.4442   6.5552   2.9452   H         1 RES1   0.0000
    12 H2      -1.3703   7.6158   2.0332   H         1 RES1   0.0000
    13 H3      -2.6670   6.7604   1.2102   H         1 RES1   0.0000
    14 H4      -2.5447   4.4279   0.7343   H         1 RES1   0.0000
    15 H5      -1.2251   3.4321   1.3443   H         1 RES1   0.0000
    16 H6      -2.4218   4.0881   2.4590   H         1 RES1   0.0000
    17 H7       1.5615   4.2942   1.8613   H         1 RES1   0.0000
    18 H8       0.4033   3.2158   2.6521   H         1 RES1   0.0000
    19 H9       0.3623   6.6677   0.5613   H         1 RES1   0.0000
    20 H10      0.3982   4.9358   0.2383   H         1 RES1   0.0000
    21 H11     -0.9376   5.9163  -0.3609   H         1 RES1   0.0000
    22 H12      0.5206   6.2280   3.0525   H         1 RES1   0.0000
    23 H13     -0.6402   5.1114   3.7823   H         1 RES1   0.0000
    24 H14      2.8787   2.9235   1.8362   H         1 RES1   0.0000
    25 H15      3.4378   1.5181   2.7403   H         1 RES1   0.0000
    26 H16      1.7114   1.8310   2.5771   H         1 RES1   0.0000
@<TRIPOS>BOND
     1     4     5    1
     2     6     7    1
     3     8     1    1
     4     9     5    1
     5    10     6    2
     6     2     8    1
     7     3     8    1
     8     4     8    1
     9     6     9    1
    10     1    11    1
    11     1    12    1
    12     1    13    1
    13     2    14    1
    14     2    15    1
    15     2    16    1
    16     5    17    1
    17     5    18    1
    18     3    19    1
    19     3    20    1
    20     3    21    1
    21     4    22    1
    22     4    23    1
    23     7    24    1
    24     7    25    1
    25     7    26    1
@<TRIPOS>SUBSTRUCTURE
     1 RES1        1 GROUP             0 ****  ****    0  
@<TRIPOS>MOLECULE
ACHOLC
    26    25     1     0     0
SMALL
USER_CHARGES
****
Generated from the CSD

@<TRIPOS>ATOM
     1 C1      -1.9363   6.6658   2.0087   C.3       1 RES1   0.0000
     2 C2      -1.8641   4.2797   1.5971   C.3       1 RES1   0.0000
     3 C3      -0.2878   5.7453   0.4706   C.3       1 RES1   0.0000
     4 C4      -0.0392   5.2997   2.8841   C.3       1 RES1   0.0000
     5 C5       0.9488   4.1612   2.7614   C.3       1 RES1   0.0000
     6 C6       3.0761   5.1874   2.5304   C.2       1 RES1   0.0000
     7 C7       2.8868   5.2476   4.0087   C.3       1 RES1   0.0000
     8 N1      -1.0233   5.5077   1.7518   N.4       1 RES1   1.0000
     9 O1       2.0728   4.5447   1.9264   O.3       1 RES1   0.0000
    10 O2       4.0114   5.6357   1.9280   O.2       1 RES1   0.0000
    11 H1      -2.4451   6.5525   2.9637   H         1 RES1   0.0000
    12 H2      -1.3857   7.6034   2.0239   H         1 RES1   0.0000
    13 H3      -2.6925   6.7361   1.2296   H         1 RES1   0.0000
    14 H4      -2.6057   4.4164   0.8129   H         1 RES1   0.0000
    15 H5      -1.2487   3.4214   1.3357   H         1 RES1   0.0000
    16 H6      -2.3879   4.0518   2.5230   H         1 RES1   0.0000
    17 H7       0.4505   3.2783   2.3424   H         1 RES1   0.0000
    18 H8       1.3173   3.8897   3.7584   H         1 RES1   0.0000
    19 H9       0.3278   6.6398   0.5395   H         1 RES1   0.0000
    20 H10      0.3615   4.9042   0.2370   H         1 RES1   0.0000
    21 H11     -0.9840   5.8757  -0.3552   H         1 RES1   0.0000
    22 H12      0.5214   6.2308   3.0333   H         1 RES1   0.0000
    23 H13     -0.6273   5.1215   3.7928   H         1 RES1   0.0000
    24 H14      2.9274   4.2511   4.4436   H         1 RES1   0.0000
    25 H15      3.6636   5.8518   4.4727   H         1 RES1   0.0000
    26 H16      1.9226   5.6865   4.2565   H         1 RES1   0.0000
@<TRIPOS>BOND
     1     4     5    1
     2     6     7    1
     3     8     1    1
     4     9     5    1
     5    10     6    2
     6     2     8    1
     7     3     8    1
     8     4     8    1
     9     6     9    1
    10     1    11    1
    11     1    12    1
    12     1    13    1
    13     2    14    1
    14     2    15    1
    15     2    16    1
    16     5    17    1
    17     5    18    1
    18     3    19    1
    19     3    20    1
    20     3    21    1
    21     4    22    1
    22     4    23    1
    23     7    24    1
    24     7    25    1
    25     7    26    1
@<TRIPOS>SUBSTRUCTURE
     1 RES1        1 GROUP             0 ****  ****    0  
@<TRIPOS>MOLECULE
ACHOLC
    26    25     1     0     0
SMALL
USER_CHARGES
****
Generated from the CSD

@<TRIPOS>ATOM
     1 C1      -1.9054   6.6948   1.9882   C.3       1 RES1   0.0000
     2 C2      -1.8284   4.3197   1.5183   C.3       1 RES1   0.0000
     3 C3      -0.2150   5.8073   0.4765   C.3       1 RES1   0.0000
     4 C4      -0.0392   5.2997   2.8841   C.3       1 RES1   0.0000
     5 C5       0.9488   4.1612   2.7614   C.3       1 RES1   0.0000
     6 C6       0.3010   2.5521   4.3810   C.2       1 RES1   0.0000
     7 C7       1.0468   3.5297   5.2255   C.3       1 RES1   0.0000
     8 N1      -0.9887   5.5401   1.7289   N.4       1 RES1   1.0000
     9 O1       0.3174   2.8960   3.0903   O.3       1 RES1   0.0000
    10 O2      -0.2692   1.5762   4.7822   O.2       1 RES1   0.0000
    11 H1      -2.4425   6.5593   2.9247   H         1 RES1   0.0000
    12 H2      -1.3526   7.6296   2.0435   H         1 RES1   0.0000
    13 H3      -2.6380   6.7878   1.1893   H         1 RES1   0.0000
    14 H4      -2.5410   4.4764   0.7112   H         1 RES1   0.0000
    15 H5      -1.2075   3.4641   1.2609   H         1 RES1   0.0000
    16 H6      -2.3860   4.0749   2.4199   H         1 RES1   0.0000
    17 H7       1.8064   4.3386   3.4220   H         1 RES1   0.0000
    18 H8       1.3283   4.1175   1.7331   H         1 RES1   0.0000
    19 H9       0.4600   6.6497   0.6125   H         1 RES1   0.0000
    20 H10      0.3783   4.9392   0.1971   H         1 RES1   0.0000
    21 H11     -0.8851   6.0397  -0.3486   H         1 RES1   0.0000
    22 H12      0.5193   6.2247   3.0737   H         1 RES1   0.0000
    23 H13     -0.6544   5.1004   3.7702   H         1 RES1   0.0000
    24 H14      0.6848   4.5415   5.0551   H         1 RES1   0.0000
    25 H15      0.9243   3.2992   6.2817   H         1 RES1   0.0000
    26 H16      2.1098   3.5067   4.9946   H         1 RES1   0.0000
@<TRIPOS>BOND
     1     4     5    1
     2     6     7    1
     3     8     1    1
     4     9     5    1
     5    10     6    2
     6     2     8    1
     7     3     8    1
     8     4     8    1
     9     6     9    1
    10     1    11    1
    11     1    12    1
    12     1    13    1
    13     2    14    1
    14     2    15    1
    15     2    16    1
    16     5    17    1
    17     5    18    1
    18     3    19    1
    19     3    20    1
    20     3    21    1
    21     4    22    1
    22     4    23    1
    23     7    24    1
    24     7    25    1
    25     7    26    1
@<TRIPOS>SUBSTRUCTURE
     1 RES1        1 GROUP             0 ****  ****    0  
@<TRIPOS>MOLECULE
ACHOLC
    26    25     1     0     0
SMALL
USER_CHARGES
****
Generated from the CSD

@<TRIPOS>ATOM
     1 C1      -1.9432   6.6592   2.0135   C.3       1 RES1   0.0000
     2 C2      -1.8719   4.2709   1.6154   C.3       1 RES1   0.0000
     3 C3      -0.3044   5.7310   0.4698   C.3       1 RES1   0.0000
     4 C4      -0.0392   5.2997   2.8841   C.3       1 RES1   0.0000
     5 C5       0.9488   4.1612   2.7614   C.3       1 RES1   0.0000
     6 C6       1.3308   3.3797   4.9694   C.2       1 RES1   0.0000
     7 C7       0.0922   2.6288   4.6129   C.3       1 RES1   0.0000
     8 N1      -1.0311   5.5003   1.7573   N.4       1 RES1   1.0000
     9 O1       1.7969   4.0885   3.9375   O.3       1 RES1   0.0000
    10 O2       1.8768   3.3578   6.0371   O.2       1 RES1   0.0000
    11 H1      -2.4454   6.5512   2.9726   H         1 RES1   0.0000
    12 H2      -1.3933   7.5973   2.0195   H         1 RES1   0.0000
    13 H3      -2.7047   6.7245   1.2392   H         1 RES1   0.0000
    14 H4      -2.5866   4.3841   0.8029   H         1 RES1   0.0000
    15 H5      -1.2523   3.4022   1.4032   H         1 RES1   0.0000
    16 H6      -2.4272   4.0757   2.5305   H         1 RES1   0.0000
    17 H7       1.5615   4.2942   1.8613   H         1 RES1   0.0000
    18 H8       0.4033   3.2158   2.6521   H         1 RES1   0.0000
    19 H9       0.3107   6.6264   0.5292   H         1 RES1   0.0000
    20 H10      0.3441   4.8890   0.2368   H         1 RES1   0.0000
    21 H11     -1.0063   5.8558  -0.3521   H         1 RES1   0.0000
    22 H12      0.5217   6.2320   3.0240   H         1 RES1   0.0000
    23 H13     -0.6210   5.1264   3.7978   H         1 RES1   0.0000
    24 H14      0.2952   1.8983   3.8326   H         1 RES1   0.0000
    25 H15     -0.3007   2.0998   5.4786   H         1 RES1   0.0000
    26 H16     -0.6786   3.3061   4.2509   H         1 RES1   0.0000
@<TRIPOS>BOND
     1     4     5    1
     2     6     7    1
     3     8     1    1
     4     9     5    1
     5    10     6    2
     6     2     8    1
     7     3     8    1
     8     4     8    1
     9     6     9    1
    10     1    11    1
    11     1    12    1
    12     1    13    1
    13     2    14    1
    14     2    15    1
    15     2    16    1
    16     5    17    1
    17     5    18    1
    18     3    19    1
    19     3    20    1
    20     3    21    1
    21     4    22    1
    22     4    23    1
    23     7    24    1
    24     7    25    1
    25     7    26    1
@<TRIPOS>SUBSTRUCTURE
     1 RES1        1 GROUP             0 ****  ****    0  
@<TRIPOS>MOLECULE
ACHOLC
    26    25     1     0     0
SMALL
USER_CHARGES
****
Generated from the CSD

@<TRIPOS>ATOM
     1 C1      -1.9002   6.6997   1.9850   C.3       1 RES1   0.0000
     2 C2      -1.8212   4.3269   1.5039   C.3       1 RES1   0.0000
     3 C3      -0.2018   5.8191   0.4781   C.3       1 RES1   0.0000
     4 C4      -0.0392   5.2997   2.8841   C.3       1 RES1   0.0000
     5 C5       0.9488   4.1612   2.7614   C.3       1 RES1   0.0000
     6 C6       2.9057   4.8333   3.9236   C.2       1 RES1   0.0000
     7 C7       3.1144   5.4936   2.6025   C.3       1 RES1   0.0000
     8 N1      -0.9824   5.5460   1.7250   N.4       1 RES1   1.0000
     9 O1       1.7969   4.0885   3.9375   O.3       1 RES1   0.0000
    10 O2       3.6178   4.9496   4.8818   O.2       1 RES1   0.0000
    11 H1      -2.4423   6.5598   2.9178   H         1 RES1   0.0000
    12 H2      -1.3474   7.6341   2.0478   H         1 RES1   0.0000
    13 H3      -2.6284   6.7968   1.1825   H         1 RES1   0.0000
    14 H4      -2.5009   4.4731   0.6670   H         1 RES1   0.0000
    15 H5      -1.1965   3.4632   1.2862   H         1 RES1   0.0000
    16 H6      -2.4149   4.1018   2.3874   H         1 RES1   0.0000
    17 H7       1.5615   4.2942   1.8613   H         1 RES1   0.0000
    18 H8       0.4033   3.2158   2.6521   H         1 RES1   0.0000
    19 H9       0.4136   6.7086   0.5954   H         1 RES1   0.0000
    20 H10      0.4527   4.9828   0.2419   H         1 RES1   0.0000
    21 H11     -0.8683   5.9772  -0.3673   H         1 RES1   0.0000
    22 H12      0.5188   6.2234   3.0809   H         1 RES1   0.0000
    23 H13     -0.6592   5.0966   3.7660   H         1 RES1   0.0000
    24 H14      2.2394   6.0751   2.3194   H         1 RES1   0.0000
    25 H15      3.9703   6.1645   2.6375   H         1 RES1   0.0000
    26 H16      3.2953   4.7536   1.8257   H         1 RES1   0.0000
@<TRIPOS>BOND
     1     4     5    1
     2     6     7    1
     3     8     1    1
     4     9     5    1
     5    10     6    2
     6     2     8    1
     7     3     8    1
     8     4     8    1
     9     6     9    1
    10     1    11    1
    11     1    12    1
    12     1    13    1
    13     2    14    1
    14     2    15    1
    15     2    16    1
    16     5    17    1
    17     5    18    1
    18     3    19    1
    19     3    20    1
    20     3    21    1
    21     4    22    1
    22     4    23    1
    23     7    24    1
    24     7    25    1
    25     7    26    1
@<TRIPOS>SUBSTRUCTURE
     1 RES1        1 GROUP             0 ****  ****    0  
@<TRIPOS>MOLECULE
ACHOLC
    26    25     1     0     0
SMALL
USER_CHARGES
****
Generated from the CSD

@<TRIPOS>ATOM
     1 C1      -1.9029   6.6957   1.9843   C.3       1 RES1   0.0000
     2 C2      -1.9169   4.2948   1.6629   C.3       1 RES1   0.0000
     3 C3      -0.3101   5.6625   0.4592   C.3       1 RES1   0.0000
     4 C4      -0.0392   5.2997   2.8841   C.3       1 RES1   0.0000
     5 C5       0.9488   4.1612   2.7614   C.3       1 RES1   0.0000
     6 C6       2.3222   3.7721   0.8656   C.2       1 RES1   0.0000
     7 C7       1.3879   2.6116   0.7921   C.3       1 RES1   0.0000
     8 N1      -1.0332   5.4983   1.7588   N.4       1 RES1   1.0000
     9 O1       2.0728   4.5447   1.9264   O.3       1 RES1   0.0000
    10 O2       3.1904   4.0197   0.0760   O.2       1 RES1   0.0000
    11 H1      -2.3934   6.6400   2.9538   H         1 RES1   0.0000
    12 H2      -1.3225   7.6145   1.9472   H         1 RES1   0.0000
    13 H3      -2.6737   6.7575   1.2189   H         1 RES1   0.0000
    14 H4      -2.5890   4.3767   0.8113   H         1 RES1   0.0000
    15 H5      -1.3247   3.3902   1.5415   H         1 RES1   0.0000
    16 H6      -2.5203   4.1868   2.5617   H         1 RES1   0.0000
    17 H7       0.4505   3.2783   2.3424   H         1 RES1   0.0000
    18 H8       1.3173   3.8897   3.7584   H         1 RES1   0.0000
    19 H9       0.6938   6.0488   0.6225   H         1 RES1   0.0000
    20 H10     -0.2263   4.7093  -0.0586   H         1 RES1   0.0000
    21 H11     -0.8385   6.3563  -0.1913   H         1 RES1   0.0000
    22 H12      0.5217   6.2324   3.0215   H         1 RES1   0.0000
    23 H13     -0.6193   5.1277   3.7992   H         1 RES1   0.0000
    24 H14      0.3615   2.9501   0.6673   H         1 RES1   0.0000
    25 H15      1.6373   1.9683  -0.0492   H         1 RES1   0.0000
    26 H16      1.4403   2.0162   1.7012   H         1 RES1   0.0000
@<TRIPOS>BOND
     1     4     5    1
     2     6     7    1
     3     8     1    1
     4     9     5    1
     5    10     6    2
     6     2     8    1
     7     3     8    1
     8     4     8    1
     9     6     9    1
    10     1    11    1
    11     1    12    1
    12     1    13    1
    13     2    14    1
    14     2    15    1
    15     2    16    1
    16     5    17    1
    17     5    18    1
    18     3    19    1
    19     3    20    1
    20     3    21    1
    21     4    22    1
    22     4    23    1
    23     7    24    1
    24     7    25    1
    25     7    26    1
@<TRIPOS>SUBSTRUCTURE
     1 RES1        1 GROUP             0 ****  ****    0  
@<TRIPOS>MOLECULE
ACHOLC
    26    25     1     0     0
SMALL
USER_CHARGES
****
Generated from the CSD

@<TRIPOS>ATOM
     1 C1      -1.9225   6.6787   1.9992   C.3       1 RES1   0.0000
     2 C2      -1.8278   4.3044   1.5286   C.3       1 RES1   0.0000
     3 C3      -0.2333   5.8058   0.4776   C.3       1 RES1   0.0000
     4 C4      -0.0392   5.2997   2.8841   C.3       1 RES1   0.0000
     5 C5       0.9488   4.1612   2.7614   C.3       1 RES1   0.0000
     6 C6       0.4051   1.9268   2.1751   C.2       1 RES1   0.0000
     7 C7       1.3468   2.2855   1.0753   C.3       1 RES1   0.0000
     8 N1      -0.9974   5.5319   1.7345   N.4       1 RES1   1.0000
     9 O1       0.3174   2.8960   3.0903   O.3       1 RES1   0.0000
    10 O2      -0.2015   0.8961   2.2657   O.2       1 RES1   0.0000
    11 H1      -2.4530   6.5386   2.9387   H         1 RES1   0.0000
    12 H2      -1.3775   7.6182   2.0513   H         1 RES1   0.0000
    13 H3      -2.6605   6.7654   1.2044   H         1 RES1   0.0000
    14 H4      -2.7127   4.5319   0.9379   H         1 RES1   0.0000
    15 H5      -1.2596   3.5375   1.0063   H         1 RES1   0.0000
    16 H6      -2.1532   3.8945   2.4825   H         1 RES1   0.0000
    17 H7       1.8064   4.3386   3.4220   H         1 RES1   0.0000
    18 H8       1.3283   4.1175   1.7331   H         1 RES1   0.0000
    19 H9       0.4181   6.6683   0.6024   H         1 RES1   0.0000
    20 H10      0.3837   4.9514   0.2074   H         1 RES1   0.0000
    21 H11     -0.9108   6.0096  -0.3490   H         1 RES1   0.0000
    22 H12      0.5199   6.2263   3.0636   H         1 RES1   0.0000
    23 H13     -0.6477   5.1056   3.7760   H         1 RES1   0.0000
    24 H14      2.2942   2.6373   1.4781   H         1 RES1   0.0000
    25 H15      1.5468   1.4235   0.4423   H         1 RES1   0.0000
    26 H16      0.9297   3.0740   0.4523   H         1 RES1   0.0000
@<TRIPOS>BOND
     1     4     5    1
     2     6     7    1
     3     8     1    1
     4     9     5    1
     5    10     6    2
     6     2     8    1
     7     3     8    1
     8     4     8    1
     9     6     9    1
    10     1    11    1
    11     1    12    1
    12     1    13    1
    13     2    14    1
    14     2    15    1
    15     2    16    1
    16     5    17    1
    17     5    18    1
    18     3    19    1
    19     3    20    1
    20     3    21    1
    21     4    22    1
    22     4    23    1
    23     7    24    1
    24     7    25    1
    25     7    26    1
@<TRIPOS>SUBSTRUCTURE
     1 RES1        1 GROUP             0 ****  ****    0  
@<TRIPOS>MOLECULE
ACHOLC
    26    25     1     0     0
SMALL
USER_CHARGES
****
Generated from the CSD

@<TRIPOS>ATOM
     1 C1      -1.9168   6.6841   1.9955   C.3       1 RES1   0.0000
     2 C2      -1.8457   4.3036   1.5532   C.3       1 RES1   0.0000
     3 C3      -0.2459   5.7783   0.4730   C.3       1 RES1   0.0000
     4 C4      -0.0392   5.2997   2.8841   C.3       1 RES1   0.0000
     5 C5       0.9488   4.1612   2.7614   C.3       1 RES1   0.0000
     6 C6       0.2553   2.5761   4.3858   C.2       1 RES1   0.0000
     7 C7      -1.1534   2.4528   4.8603   C.3       1 RES1   0.0000
     8 N1      -1.0035   5.5263   1.7384   N.4       1 RES1   1.0000
     9 O1       0.3174   2.8960   3.0903   O.3       1 RES1   0.0000
    10 O2       1.2349   2.3995   5.0551   O.2       1 RES1   0.0000
    11 H1      -2.4418   6.5600   2.9403   H         1 RES1   0.0000
    12 H2      -1.3634   7.6195   2.0324   H         1 RES1   0.0000
    13 H3      -2.6596   6.7676   1.2049   H         1 RES1   0.0000
    14 H4      -2.5559   4.4438   0.7410   H         1 RES1   0.0000
    15 H5      -1.2264   3.4408   1.3168   H         1 RES1   0.0000
    16 H6      -2.4061   4.0805   2.4587   H         1 RES1   0.0000
    17 H7       1.8064   4.3386   3.4220   H         1 RES1   0.0000
    18 H8       1.3283   4.1175   1.7331   H         1 RES1   0.0000
    19 H9       0.4231   6.6288   0.5869   H         1 RES1   0.0000
    20 H10      0.3521   4.9107   0.2022   H         1 RES1   0.0000
    21 H11     -0.9269   5.9904  -0.3485   H         1 RES1   0.0000
    22 H12      0.5203   6.2274   3.0566   H         1 RES1   0.0000
    23 H13     -0.6430   5.1092   3.7800   H         1 RES1   0.0000
    24 H14     -1.5159   1.4351   4.7319   H         1 RES1   0.0000
    25 H15     -1.2289   2.7090   5.9150   H         1 RES1   0.0000
    26 H16     -1.8081   3.1188   4.3021   H         1 RES1   0.0000
@<TRIPOS>BOND
     1     4     5    1
     2     6     7    1
     3     8     1    1
     4     9     5    1
     5    10     6    2
     6     2     8    1
     7     3     8    1
     8     4     8    1
     9     6     9    1
    10     1    11    1
    11     1    12    1
    12     1    13    1
    13     2    14    1
    14     2    15    1
    15     2    16    1
    16     5    17    1
    17     5    18    1
    18     3    19    1
    19     3    20    1
    20     3    21    1
    21     4    22    1
    22     4    23    1
    23     7    24    1
    24     7    25    1
    25     7    26    1
@<TRIPOS>SUBSTRUCTURE
     1 RES1        1 GROUP             0 ****  ****    0  
@<TRIPOS>MOLECULE
ACHOLC
    26    25     1     0     0
SMALL
USER_CHARGES
****
Generated from the CSD

@<TRIPOS>ATOM
     1 C1      -1.9168   6.6842   1.9955   C.3       1 RES1   0.0000
     2 C2      -1.8456   4.3036   1.5531   C.3       1 RES1   0.0000
     3 C3      -0.2458   5.7784   0.4730   C.3       1 RES1   0.0000
     4 C4      -0.0392   5.2997   2.8841   C.3       1 RES1   0.0000
     5 C5       0.9488   4.1612   2.7614   C.3       1 RES1   0.0000
     6 C6       0.2714   2.5678   4.3844   C.2       1 RES1   0.0000
     7 C7       1.0662   1.3392   4.6741   C.3       1 RES1   0.0000
     8 N1      -1.0034   5.5263   1.7384   N.4       1 RES1   1.0000
     9 O1       0.3174   2.8960   3.0903   O.3       1 RES1   0.0000
    10 O2      -0.3324   3.2150   5.1938   O.2       1 RES1   0.0000
    11 H1      -2.4418   6.5600   2.9403   H         1 RES1   0.0000
    12 H2      -1.3634   7.6195   2.0325   H         1 RES1   0.0000
    13 H3      -2.6595   6.7677   1.2049   H         1 RES1   0.0000
    14 H4      -2.5548   4.4434   0.7400   H         1 RES1   0.0000
    15 H5      -1.2262   3.4406   1.3181   H         1 RES1   0.0000
    16 H6      -2.4072   4.0813   2.4581   H         1 RES1   0.0000
    17 H7       1.8064   4.3386   3.4220   H         1 RES1   0.0000
    18 H8       1.3283   4.1175   1.7331   H         1 RES1   0.0000
    19 H9       0.4230   6.6290   0.5869   H         1 RES1   0.0000
    20 H10      0.3523   4.9108   0.2023   H         1 RES1   0.0000
    21 H11     -0.9268   5.9904  -0.3486   H         1 RES1   0.0000
    22 H12      0.5203   6.2274   3.0566   H         1 RES1   0.0000
    23 H13     -0.6430   5.1092   3.7799   H         1 RES1   0.0000
    24 H14      2.0960   1.5942   4.9157   H         1 RES1   0.0000
    25 H15      0.6444   0.7970   5.5178   H         1 RES1   0.0000
    26 H16      1.0748   0.6736   3.8135   H         1 RES1   0.0000
@<TRIPOS>BOND
     1     4     5    1
     2     6     7    1
     3     8     1    1
     4     9     5    1
     5    10     6    2
     6     2     8    1
     7     3     8    1
     8     4     8    1
     9     6     9    1
    10     1    11    1
    11     1    12    1
    12     1    13    1
    13     2    14    1
    14     2    15    1
    15     2    16    1
    16     5    17    1
    17     5    18    1
    18     3    19    1
    19     3    20    1
    20     3    21    1
    21     4    22    1
    22     4    23    1
    23     7    24    1
    24     7    25    1
    25     7    26    1
@<TRIPOS>SUBSTRUCTURE
     1 RES1        1 GROUP             0 ****  ****    0  
@<TRIPOS>MOLECULE
ACHOLC
    26    25     1     0     0
SMALL
USER_CHARGES
****
Generated from the CSD

@<TRIPOS>ATOM
     1 C1      -1.9251   6.6763   2.0010   C.3       1 RES1   0.0000
     2 C2      -1.8481   4.2951   1.5629   C.3       1 RES1   0.0000
     3 C3      -0.2578   5.7731   0.4730   C.3       1 RES1   0.0000
     4 C4      -0.0392   5.2997   2.8841   C.3       1 RES1   0.0000
     5 C5       0.9488   4.1612   2.7614   C.3       1 RES1   0.0000
     6 C6       3.0671   5.2050   2.5263   C.2       1 RES1   0.0000
     7 C7       4.3504   4.4468   2.4698   C.3       1 RES1   0.0000
     8 N1      -1.0091   5.5210   1.7421   N.4       1 RES1   1.0000
     9 O1       2.0728   4.5447   1.9264   O.3       1 RES1   0.0000
    10 O2       2.9162   6.2848   3.0262   O.2       1 RES1   0.0000
    11 H1      -2.4457   6.5522   2.9483   H         1 RES1   0.0000
    12 H2      -1.3747   7.6135   2.0338   H         1 RES1   0.0000
    13 H3      -2.6716   6.7559   1.2135   H         1 RES1   0.0000
    14 H4      -2.5762   4.4391   0.7674   H         1 RES1   0.0000
    15 H5      -1.2291   3.4384   1.3048   H         1 RES1   0.0000
    16 H6      -2.3878   4.0600   2.4779   H         1 RES1   0.0000
    17 H7       0.4505   3.2783   2.3424   H         1 RES1   0.0000
    18 H8       1.3173   3.8897   3.7584   H         1 RES1   0.0000
    19 H9       0.3585   6.6655   0.5605   H         1 RES1   0.0000
    20 H10      0.3928   4.9337   0.2367   H         1 RES1   0.0000
    21 H11     -0.9437   5.9152  -0.3595   H         1 RES1   0.0000
    22 H12      0.5207   6.2284   3.0500   H         1 RES1   0.0000
    23 H13     -0.6385   5.1127   3.7837   H         1 RES1   0.0000
    24 H14      4.9082   4.6992   1.5704   H         1 RES1   0.0000
    25 H15      4.9735   4.6785   3.3311   H         1 RES1   0.0000
    26 H16      4.1651   3.3747   2.4640   H         1 RES1   0.0000
@<TRIPOS>BOND
     1     4     5    1
     2     6     7    1
     3     8     1    1
     4     9     5    1
     5    10     6    2
     6     2     8    1
     7     3     8    1
     8     4     8    1
     9     6     9    1
    10     1    11    1
    11     1    12    1
    12     1    13    1
    13     2    14    1
    14     2    15    1
    15     2    16    1
    16     5    17    1
    17     5    18    1
    18     3    19    1
    19     3    20    1
    20     3    21    1
    21     4    22    1
    22     4    23    1
    23     7    24    1
    24     7    25    1
    25     7    26    1
@<TRIPOS>SUBSTRUCTURE
     1 RES1        1 GROUP             0 ****  ****    0  
@<TRIPOS>MOLECULE
ACHOLC
    26    25     1     0     0
SMALL
USER_CHARGES
****
Generated from the CSD

@<TRIPOS>ATOM
     1 C1      -1.9255   6.6760   2.0012   C.3       1 RES1   0.0000
     2 C2      -1.8485   4.2947   1.5637   C.3       1 RES1   0.0000
     3 C3      -0.2586   5.7725   0.4730   C.3       1 RES1   0.0000
     4 C4      -0.0392   5.2997   2.8841   C.3       1 RES1   0.0000
     5 C5       0.9488   4.1612   2.7614   C.3       1 RES1   0.0000
     6 C6       3.0628   5.2131   2.5243   C.2       1 RES1   0.0000
     7 C7       3.2109   6.5928   1.9772   C.3       1 RES1   0.0000
     8 N1      -1.0095   5.5206   1.7424   N.4       1 RES1   1.0000
     9 O1       2.0728   4.5447   1.9264   O.3       1 RES1   0.0000
    10 O2       3.7238   4.7372   3.4048   O.2       1 RES1   0.0000
    11 H1      -2.4457   6.5521   2.9487   H         1 RES1   0.0000
    12 H2      -1.3750   7.6132   2.0336   H         1 RES1   0.0000
    13 H3      -2.6722   6.7553   1.2139   H         1 RES1   0.0000
    14 H4      -2.5763   4.4381   0.7677   H         1 RES1   0.0000
    15 H5      -1.2294   3.4378   1.3066   H         1 RES1   0.0000
    16 H6      -2.3886   4.0603   2.4786   H         1 RES1   0.0000
    17 H7       0.4505   3.2783   2.3424   H         1 RES1   0.0000
    18 H8       1.3173   3.8897   3.7584   H         1 RES1   0.0000
    19 H9       0.3572   6.6653   0.5598   H         1 RES1   0.0000
    20 H10      0.3925   4.9333   0.2370   H         1 RES1   0.0000
    21 H11     -0.9447   5.9136  -0.3595   H         1 RES1   0.0000
    22 H12      0.5207   6.2284   3.0495   H         1 RES1   0.0000
    23 H13     -0.6382   5.1129   3.7839   H         1 RES1   0.0000
    24 H14      2.5880   7.2949   2.5275   H         1 RES1   0.0000
    25 H15      4.2436   6.9275   2.0491   H         1 RES1   0.0000
    26 H16      2.9158   6.6263   0.9305   H         1 RES1   0.0000
@<TRIPOS>BOND
     1     4     5    1
     2     6     7    1
     3     8     1    1
     4     9     5    1
     5    10     6    2
     6     2     8    1
     7     3     8    1
     8     4     8    1
     9     6     9    1
    10     1    11    1
    11     1    12    1
    12     1    13    1
    13     2    14    1
    14     2    15    1
    15     2    16    1
    16     5    17    1
    17     5    18    1
    18     3    19    1
    19     3    20    1
    20     3    21    1
    21     4    22    1
    22     4    23    1
    23     7    24    1
    24     7    25    1
    25     7    26    1
@<TRIPOS>SUBSTRUCTURE
     1 RES1        1 GROUP             0 ****  ****    0  
@<TRIPOS>MOLECULE
ACHOLC
    26    25     1     0     0
SMALL
USER_CHARGES
****
Generated from the CSD

@<TRIPOS>ATOM
     1 C1      -1.9369   6.6325   1.9599   C.3       1 RES1   0.0000
     2 C2      -1.7759   4.2608   1.4943   C.3       1 RES1   0.0000
     3 C3      -0.1971   5.7992   0.4736   C.3       1 RES1   0.0000
     4 C4      -0.0392   5.2997   2.8841   C.3       1 RES1   0.0000
     5 C5       0.9041   6.4265   3.2417   C.3       1 RES1   0.0000
     6 C6       0.9004   8.7524   3.7125   C.2       1 RES1   0.0000
     7 C7       0.8255   9.8018   2.6550   C.3       1 RES1   0.0000
     8 N1      -0.9795   5.5080   1.7152   N.4       1 RES1   1.0000
     9 O1       0.1782   7.6744   3.3951   O.3       1 RES1   0.0000
    10 O2       1.5108   8.8409   4.7411   O.2       1 RES1   0.0000
    11 H1      -2.1273   6.7534   3.0243   H         1 RES1   0.0000
    12 H2      -1.5463   7.5711   1.5739   H         1 RES1   0.0000
    13 H3      -2.8872   6.4392   1.4667   H         1 RES1   0.0000
    14 H4      -2.4524   4.3796   0.6506   H         1 RES1   0.0000
    15 H5      -1.1212   3.4167   1.2876   H         1 RES1   0.0000
    16 H6      -2.3698   4.0216   2.3739   H         1 RES1   0.0000
    17 H7       1.6732   6.5295   2.4663   H         1 RES1   0.0000
    18 H8       1.4148   6.1891   4.1830   H         1 RES1   0.0000
    19 H9       0.3878   6.7091   0.5908   H         1 RES1   0.0000
    20 H10      0.4866   4.9834   0.2483   H         1 RES1   0.0000
    21 H11     -0.8607   5.9303  -0.3786   H         1 RES1   0.0000
    22 H12     -0.6358   5.0523   3.7708   H         1 RES1   0.0000
    23 H13      0.5776   4.4236   2.6487   H         1 RES1   0.0000
    24 H14     -0.0090  10.4753   2.8384   H         1 RES1   0.0000
    25 H15      1.7390  10.3923   2.6324   H         1 RES1   0.0000
    26 H16      0.6885   9.3516   1.6740   H         1 RES1   0.0000
@<TRIPOS>BOND
     1     4     5    1
     2     6     7    1
     3     8     1    1
     4     9     5    1
     5    10     6    2
     6     2     8    1
     7     3     8    1
     8     4     8    1
     9     6     9    1
    10     1    11    1
    11     1    12    1
    12     1    13    1
    13     2    14    1
    14     2    15    1
    15     2    16    1
    16     5    17    1
    17     5    18    1
    18     3    19    1
    19     3    20    1
    20     3    21    1
    21     4    22    1
    22     4    23    1
    23     7    24    1
    24     7    25    1
    25     7    26    1
@<TRIPOS>SUBSTRUCTURE
     1 RES1        1 GROUP             0 ****  ****    0  
@<TRIPOS>MOLECULE
ACHOLC
    26    25     1     0     0
SMALL
USER_CHARGES
****
Generated from the CSD

@<TRIPOS>ATOM
     1 C1      -1.9369   6.6325   1.9599   C.3       1 RES1   0.0000
     2 C2      -1.7759   4.2608   1.4943   C.3       1 RES1   0.0000
     3 C3      -0.1971   5.7992   0.4736   C.3       1 RES1   0.0000
     4 C4      -0.0392   5.2997   2.8841   C.3       1 RES1   0.0000
     5 C5       0.9041   6.4265   3.2417   C.3       1 RES1   0.0000
     6 C6       0.9004   8.7524   3.7125   C.2       1 RES1   0.0000
     7 C7       0.5288   9.2951   5.0513   C.3       1 RES1   0.0000
     8 N1      -0.9795   5.5080   1.7152   N.4       1 RES1   1.0000
     9 O1       0.1782   7.6744   3.3951   O.3       1 RES1   0.0000
    10 O2       1.7505   9.1955   2.9916   O.2       1 RES1   0.0000
    11 H1      -2.1273   6.7534   3.0243   H         1 RES1   0.0000
    12 H2      -1.5463   7.5711   1.5739   H         1 RES1   0.0000
    13 H3      -2.8872   6.4392   1.4667   H         1 RES1   0.0000
    14 H4      -2.4524   4.3796   0.6506   H         1 RES1   0.0000
    15 H5      -1.1212   3.4167   1.2876   H         1 RES1   0.0000
    16 H6      -2.3698   4.0216   2.3739   H         1 RES1   0.0000
    17 H7       1.6732   6.5295   2.4663   H         1 RES1   0.0000
    18 H8       1.4148   6.1891   4.1830   H         1 RES1   0.0000
    19 H9       0.3878   6.7091   0.5908   H         1 RES1   0.0000
    20 H10      0.4866   4.9834   0.2483   H         1 RES1   0.0000
    21 H11     -0.8607   5.9303  -0.3786   H         1 RES1   0.0000
    22 H12     -0.6358   5.0523   3.7708   H         1 RES1   0.0000
    23 H13      0.5776   4.4236   2.6487   H         1 RES1   0.0000
    24 H14      1.1263   8.8328   5.8342   H         1 RES1   0.0000
    25 H15      0.6919  10.3701   5.0905   H         1 RES1   0.0000
    26 H16     -0.5201   9.1034   5.2675   H         1 RES1   0.0000
@<TRIPOS>BOND
     1     4     5    1
     2     6     7    1
     3     8     1    1
     4     9     5    1
     5    10     6    2
     6     2     8    1
     7     3     8    1
     8     4     8    1
     9     6     9    1
    10     1    11    1
    11     1    12    1
    12     1    13    1
    13     2    14    1
    14     2    15    1
    15     2    16    1
    16     5    17    1
    17     5    18    1
    18     3    19    1
    19     3    20    1
    20     3    21    1
    21     4    22    1
    22     4    23    1
    23     7    24    1
    24     7    25    1
    25     7    26    1
@<TRIPOS>SUBSTRUCTURE
     1 RES1        1 GROUP             0 ****  ****    0  
@<TRIPOS>MOLECULE
ACHOLC
    26    25     1     0     0
SMALL
USER_CHARGES
****
Generated from the CSD

@<TRIPOS>ATOM
     1 C1      -1.9083   6.6594   1.9411   C.3       1 RES1   0.0000
     2 C2      -1.8588   4.2611   1.6045   C.3       1 RES1   0.0000
     3 C3      -0.2505   5.6728   0.4549   C.3       1 RES1   0.0000
     4 C4      -0.0392   5.2997   2.8841   C.3       1 RES1   0.0000
     5 C5      -0.6159   4.9989   4.2494   C.3       1 RES1   0.0000
     6 C6      -2.2294   5.8128   5.7876   C.2       1 RES1   0.0000
     7 C7      -1.9902   6.9812   6.6834   C.3       1 RES1   0.0000
     8 N1      -1.0057   5.4835   1.7326   N.4       1 RES1   1.0000
     9 O1      -1.6385   5.9680   4.5996   O.3       1 RES1   0.0000
    10 O2      -2.8817   4.8447   6.0629   O.2       1 RES1   0.0000
    11 H1      -2.7869   6.3751   2.5164   H         1 RES1   0.0000
    12 H2      -1.3957   7.4579   2.4722   H         1 RES1   0.0000
    13 H3      -2.2445   7.0570   0.9858   H         1 RES1   0.0000
    14 H4      -2.5555   4.3622   0.7750   H         1 RES1   0.0000
    15 H5      -1.2458   3.3799   1.4268   H         1 RES1   0.0000
    16 H6      -2.4347   4.0958   2.5127   H         1 RES1   0.0000
    17 H7       0.1829   5.0038   5.0013   H         1 RES1   0.0000
    18 H8      -1.0580   3.9949   4.2450   H         1 RES1   0.0000
    19 H9       0.3744   6.5621   0.5043   H         1 RES1   0.0000
    20 H10      0.3920   4.8176   0.2563   H         1 RES1   0.0000
    21 H11     -0.9341   5.7852  -0.3841   H         1 RES1   0.0000
    22 H12      0.6664   4.5016   2.6221   H         1 RES1   0.0000
    23 H13      0.5357   6.2297   2.9733   H         1 RES1   0.0000
    24 H14     -2.7639   7.7344   6.5499   H         1 RES1   0.0000
    25 H15     -1.9929   6.6739   7.7271   H         1 RES1   0.0000
    26 H16     -1.0282   7.4417   6.4682   H         1 RES1   0.0000
@<TRIPOS>BOND
     1     4     5    1
     2     6     7    1
     3     8     1    1
     4     9     5    1
     5    10     6    2
     6     2     8    1
     7     3     8    1
     8     4     8    1
     9     6     9    1
    10     1    11    1
    11     1    12    1
    12     1    13    1
    13     2    14    1
    14     2    15    1
    15     2    16    1
    16     5    17    1
    17     5    18    1
    18     3    19    1
    19     3    20    1
    20     3    21    1
    21     4    22    1
    22     4    23    1
    23     7    24    1
    24     7    25    1
    25     7    26    1
@<TRIPOS>SUBSTRUCTURE
     1 RES1        1 GROUP             0 ****  ****    0  
@<TRIPOS>MOLECULE
ACHOLC
    26    25     1     0     0
SMALL
USER_CHARGES
****
Generated from the CSD

@<TRIPOS>ATOM
     1 C1      -1.9083   6.6594   1.9411   C.3       1 RES1   0.0000
     2 C2      -1.8588   4.2611   1.6045   C.3       1 RES1   0.0000
     3 C3      -0.2505   5.6728   0.4549   C.3       1 RES1   0.0000
     4 C4      -0.0392   5.2997   2.8841   C.3       1 RES1   0.0000
     5 C5      -0.6159   4.9989   4.2494   C.3       1 RES1   0.0000
     6 C6      -2.2294   5.8128   5.7876   C.2       1 RES1   0.0000
     7 C7      -3.6846   5.5163   5.6493   C.3       1 RES1   0.0000
     8 N1      -1.0057   5.4835   1.7326   N.4       1 RES1   1.0000
     9 O1      -1.6385   5.9680   4.5996   O.3       1 RES1   0.0000
    10 O2      -1.6289   5.8920   6.8228   O.2       1 RES1   0.0000
    11 H1      -2.7869   6.3751   2.5164   H         1 RES1   0.0000
    12 H2      -1.3957   7.4579   2.4722   H         1 RES1   0.0000
    13 H3      -2.2445   7.0570   0.9858   H         1 RES1   0.0000
    14 H4      -2.5555   4.3622   0.7750   H         1 RES1   0.0000
    15 H5      -1.2458   3.3799   1.4268   H         1 RES1   0.0000
    16 H6      -2.4347   4.0958   2.5127   H         1 RES1   0.0000
    17 H7       0.1829   5.0038   5.0013   H         1 RES1   0.0000
    18 H8      -1.0580   3.9949   4.2450   H         1 RES1   0.0000
    19 H9       0.3744   6.5621   0.5043   H         1 RES1   0.0000
    20 H10      0.3920   4.8176   0.2563   H         1 RES1   0.0000
    21 H11     -0.9341   5.7852  -0.3841   H         1 RES1   0.0000
    22 H12      0.6664   4.5016   2.6221   H         1 RES1   0.0000
    23 H13      0.5357   6.2297   2.9733   H         1 RES1   0.0000
    24 H14     -3.8547   4.4441   5.5775   H         1 RES1   0.0000
    25 H15     -4.2378   5.8905   6.5082   H         1 RES1   0.0000
    26 H16     -4.0903   5.9844   4.7548   H         1 RES1   0.0000
@<TRIPOS>BOND
     1     4     5    1
     2     6     7    1
     3     8     1    1
     4     9     5    1
     5    10     6    2
     6     2     8    1
     7     3     8    1
     8     4     8    1
     9     6     9    1
    10     1    11    1
    11     1    12    1
    12     1    13    1
    13     2    14    1
    14     2    15    1
    15     2    16    1
    16     5    17    1
    17     5    18    1
    18     3    19    1
    19     3    20    1
    20     3    21    1
    21     4    22    1
    22     4    23    1
    23     7    24    1
    24     7    25    1
    25     7    26    1
@<TRIPOS>SUBSTRUCTURE
     1 RES1        1 GROUP             0 ****  ****    0  
@<TRIPOS>MOLECULE
ACHOLC
    26    25     1     0     0
SMALL
USER_CHARGES
****
Generated from the CSD

@<TRIPOS>ATOM
     1 C1      -1.9219   6.6793   1.9989   C.3       1 RES1   0.0000
     2 C2      -1.8473   4.2984   1.5593   C.3       1 RES1   0.0000
     3 C3      -0.2533   5.7750   0.4730   C.3       1 RES1   0.0000
     4 C4      -0.0392   5.2997   2.8841   C.3       1 RES1   0.0000
     5 C5       0.9488   4.1612   2.7614   C.3       1 RES1   0.0000
     6 C6       2.8665   4.8885   3.9553   C.2       1 RES1   0.0000
     7 C7       2.8089   5.8677   5.0790   C.3       1 RES1   0.0000
     8 N1      -1.0070   5.5230   1.7407   N.4       1 RES1   1.0000
     9 O1       1.7969   4.0885   3.9375   O.3       1 RES1   0.0000
    10 O2       3.7576   4.7932   3.1581   O.2       1 RES1   0.0000
    11 H1      -2.4442   6.5552   2.9452   H         1 RES1   0.0000
    12 H2      -1.3703   7.6158   2.0332   H         1 RES1   0.0000
    13 H3      -2.6670   6.7604   1.2102   H         1 RES1   0.0000
    14 H4      -2.5447   4.4279   0.7343   H         1 RES1   0.0000
    15 H5      -1.2251   3.4321   1.3443   H         1 RES1   0.0000
    16 H6      -2.4218   4.0881   2.4590   H         1 RES1   0.0000
    17 H7       1.5615   4.2942   1.8613   H         1 RES1   0.0000
    18 H8       0.4033   3.2158   2.6521   H         1 RES1   0.0000
    19 H9       0.3623   6.6677   0.5613   H         1 RES1   0.0000
    20 H10      0.3982   4.9358   0.2383   H         1 RES1   0.0000
    21 H11     -0.9376   5.9163  -0.3609   H         1 RES1   0.0000
    22 H12      0.5206   6.2280   3.0525   H         1 RES1   0.0000
    23 H13     -0.6402   5.1114   3.7823   H         1 RES1   0.0000
    24 H14      3.2717   5.4560   5.9734   H         1 RES1   0.0000
    25 H15      3.3322   6.7853   4.8183   H         1 RES1   0.0000
    26 H16      1.7780   6.1214   5.3170   H         1 RES1   0.0000
@<TRIPOS>BOND
     1     4     5    1
     2     6     7    1
     3     8     1    1
     4     9     5    1
     5    10     6    2
     6     2     8    1
     7     3     8    1
     8     4     8    1
     9     6     9    1
    10     1    11    1
    11     1    12    1
    12     1    13    1
    13     2    14    1
    14     2    15    1
    15     2    16    1
    16     5    17    1
    17     5    18    1
    18     3    19    1
    19     3    20    1
    20     3    21    1
    21     4    22    1
    22     4    23    1
    23     7    24    1
    24     7    25    1
    25     7    26    1
@<TRIPOS>SUBSTRUCTURE
     1 RES1        1 GROUP             0 ****  ****    0  
@<TRIPOS>MOLECULE
ACHOLC
    26    25     1     0     0
SMALL
USER_CHARGES
****
Generated from the CSD

@<TRIPOS>ATOM
     1 C1      -1.9219   6.6793   1.9989   C.3       1 RES1   0.0000
     2 C2      -1.8473   4.2984   1.5593   C.3       1 RES1   0.0000
     3 C3      -0.2533   5.7750   0.4730   C.3       1 RES1   0.0000
     4 C4      -0.0392   5.2997   2.8841   C.3       1 RES1   0.0000
     5 C5       0.9488   4.1612   2.7614   C.3       1 RES1   0.0000
     6 C6       2.8665   4.8885   3.9553   C.2       1 RES1   0.0000
     7 C7       4.1402   4.1123   3.9687   C.3       1 RES1   0.0000
     8 N1      -1.0070   5.5230   1.7407   N.4       1 RES1   1.0000
     9 O1       1.7969   4.0885   3.9375   O.3       1 RES1   0.0000
    10 O2       2.7787   6.0847   3.9439   O.2       1 RES1   0.0000
    11 H1      -2.4442   6.5552   2.9452   H         1 RES1   0.0000
    12 H2      -1.3703   7.6158   2.0332   H         1 RES1   0.0000
    13 H3      -2.6670   6.7604   1.2102   H         1 RES1   0.0000
    14 H4      -2.5447   4.4279   0.7343   H         1 RES1   0.0000
    15 H5      -1.2251   3.4321   1.3443   H         1 RES1   0.0000
    16 H6      -2.4218   4.0881   2.4590   H         1 RES1   0.0000
    17 H7       1.5615   4.2942   1.8613   H         1 RES1   0.0000
    18 H8       0.4033   3.2158   2.6521   H         1 RES1   0.0000
    19 H9       0.3623   6.6677   0.5613   H         1 RES1   0.0000
    20 H10      0.3982   4.9358   0.2383   H         1 RES1   0.0000
    21 H11     -0.9376   5.9163  -0.3609   H         1 RES1   0.0000
    22 H12      0.5206   6.2280   3.0525   H         1 RES1   0.0000
    23 H13     -0.6402   5.1114   3.7823   H         1 RES1   0.0000
    24 H14      4.4787   3.9091   2.9549   H         1 RES1   0.0000
    25 H15      4.9234   4.6651   4.4832   H         1 RES1   0.0000
    26 H16      4.0063   3.1605   4.4785   H         1 RES1   0.0000
@<TRIPOS>BOND
     1     4     5    1
     2     6     7    1
     3     8     1    1
     4     9     5    1
     5    10     6    2
     6     2     8    1
     7     3     8    1
     8     4     8    1
     9     6     9    1
    10     1    11    1
    11     1    12    1
    12     1    13    1
    13     2    14    1
    14     2    15    1
    15     2    16    1
    16     5    17    1
    17     5    18    1
    18     3    19    1
    19     3    20    1
    20     3    21    1
    21     4    22    1
    22     4    23    1
    23     7    24    1
    24     7    25    1
    25     7    26    1
@<TRIPOS>SUBSTRUCTURE
     1 RES1        1 GROUP             0 ****  ****    0  
@<TRIPOS>MOLECULE
ACHOLC
    26    25     1     0     0
SMALL
USER_CHARGES
****
Generated from the CSD

@<TRIPOS>ATOM
     1 C1      -1.9219   6.6793   1.9989   C.3       1 RES1   0.0000
     2 C2      -1.8473   4.2984   1.5593   C.3       1 RES1   0.0000
     3 C3      -0.2533   5.7750   0.4730   C.3       1 RES1   0.0000
     4 C4      -0.0392   5.2997   2.8841   C.3       1 RES1   0.0000
     5 C5       0.9488   4.1612   2.7614   C.3       1 RES1   0.0000
     6 C6       1.3080   3.4247   4.9886   C.2       1 RES1   0.0000
     7 C7       2.1441   2.2387   5.3340   C.3       1 RES1   0.0000
     8 N1      -1.0070   5.5230   1.7407   N.4       1 RES1   1.0000
     9 O1       1.7969   4.0885   3.9375   O.3       1 RES1   0.0000
    10 O2       0.3216   3.7768   5.5731   O.2       1 RES1   0.0000
    11 H1      -2.4442   6.5552   2.9452   H         1 RES1   0.0000
    12 H2      -1.3703   7.6158   2.0332   H         1 RES1   0.0000
    13 H3      -2.6670   6.7604   1.2102   H         1 RES1   0.0000
    14 H4      -2.5447   4.4279   0.7343   H         1 RES1   0.0000
    15 H5      -1.2251   3.4321   1.3443   H         1 RES1   0.0000
    16 H6      -2.4218   4.0881   2.4590   H         1 RES1   0.0000
    17 H7       1.5615   4.2942   1.8613   H         1 RES1   0.0000
    18 H8       0.4033   3.2158   2.6521   H         1 RES1   0.0000
    19 H9       0.3623   6.6677   0.5613   H         1 RES1   0.0000
    20 H10      0.3982   4.9358   0.2383   H         1 RES1   0.0000
    21 H11     -0.9376   5.9163  -0.3609   H         1 RES1   0.0000
    22 H12      0.5206   6.2280   3.0525   H         1 RES1   0.0000
    23 H13     -0.6402   5.1114   3.7823   H         1 RES1   0.0000
    24 H14      2.9249   2.5102   6.0414   H         1 RES1   0.0000
    25 H15      1.5365   1.4562   5.7837   H         1 RES1   0.0000
    26 H16      2.6195   1.8299   4.4449   H         1 RES1   0.0000
@<TRIPOS>BOND
     1     4     5    1
     2     6     7    1
     3     8     1    1
     4     9     5    1
     5    10     6    2
     6     2     8    1
     7     3     8    1
     8     4     8    1
     9     6     9    1
    10     1    11    1
    11     1    12    1
    12     1    13    1
    13     2    14    1
    14     2    15    1
    15     2    16    1
    16     5    17    1
    17     5    18    1
    18     3    19    1
    19     3    20    1
    20     3    21    1
    21     4    22    1
    22     4    23    1
    23     7    24    1
    24     7    25    1
    25     7    26    1
@<TRIPOS>SUBSTRUCTURE
     1 RES1        1 GROUP             0 ****  ****    0  
@<TRIPOS>MOLECULE
ACHOLC
    26    25     1     0     0
SMALL
USER_CHARGES
****
Generated from the CSD

@<TRIPOS>ATOM
     1 C1      -1.9219   6.6793   1.9989   C.3       1 RES1   0.0000
     2 C2      -1.8473   4.2984   1.5593   C.3       1 RES1   0.0000
     3 C3      -0.2533   5.7750   0.4730   C.3       1 RES1   0.0000
     4 C4      -0.0392   5.2997   2.8841   C.3       1 RES1   0.0000
     5 C5       0.9488   4.1612   2.7614   C.3       1 RES1   0.0000
     6 C6       1.3080   3.4247   4.9886   C.2       1 RES1   0.0000
     7 C7       1.1100   4.3182   6.1665   C.3       1 RES1   0.0000
     8 N1      -1.0070   5.5230   1.7407   N.4       1 RES1   1.0000
     9 O1       1.7969   4.0885   3.9375   O.3       1 RES1   0.0000
    10 O2       1.0534   2.2532   4.9511   O.2       1 RES1   0.0000
    11 H1      -2.4442   6.5552   2.9452   H         1 RES1   0.0000
    12 H2      -1.3703   7.6158   2.0332   H         1 RES1   0.0000
    13 H3      -2.6670   6.7604   1.2102   H         1 RES1   0.0000
    14 H4      -2.5447   4.4279   0.7343   H         1 RES1   0.0000
    15 H5      -1.2251   3.4321   1.3443   H         1 RES1   0.0000
    16 H6      -2.4218   4.0881   2.4590   H         1 RES1   0.0000
    17 H7       1.5615   4.2942   1.8613   H         1 RES1   0.0000
    18 H8       0.4033   3.2158   2.6521   H         1 RES1   0.0000
    19 H9       0.3623   6.6677   0.5613   H         1 RES1   0.0000
    20 H10      0.3982   4.9358   0.2383   H         1 RES1   0.0000
    21 H11     -0.9376   5.9163  -0.3609   H         1 RES1   0.0000
    22 H12      0.5206   6.2280   3.0525   H         1 RES1   0.0000
    23 H13     -0.6402   5.1114   3.7823   H         1 RES1   0.0000
    24 H14      0.1149   4.7579   6.1541   H         1 RES1   0.0000
    25 H15      1.2237   3.7630   7.0952   H         1 RES1   0.0000
    26 H16      1.8379   5.1269   6.1637   H         1 RES1   0.0000
@<TRIPOS>BOND
     1     4     5    1
     2     6     7    1
     3     8     1    1
     4     9     5    1
     5    10     6    2
     6     2     8    1
     7     3     8    1
     8     4     8    1
     9     6     9    1
    10     1    11    1
    11     1    12    1
    12     1    13    1
    13     2    14    1
    14     2    15    1
    15     2    16    1
    16     5    17    1
    17     5    18    1
    18     3    19    1
    19     3    20    1
    20     3    21    1
    21     4    22    1
    22     4    23    1
    23     7    24    1
    24     7    25    1
    25     7    26    1
@<TRIPOS>SUBSTRUCTURE
     1 RES1        1 GROUP             0 ****  ****    0  
@<TRIPOS>MOLECULE
ACHOLC
    26    25     1     0     0
SMALL
USER_CHARGES
****
Generated from the CSD

@<TRIPOS>ATOM
     1 C1      -1.9219   6.6793   1.9989   C.3       1 RES1   0.0000
     2 C2      -1.8473   4.2984   1.5593   C.3       1 RES1   0.0000
     3 C3      -0.2533   5.7750   0.4730   C.3       1 RES1   0.0000
     4 C4      -0.0392   5.2997   2.8841   C.3       1 RES1   0.0000
     5 C5       0.9488   4.1612   2.7614   C.3       1 RES1   0.0000
     6 C6       3.0324   3.6140   3.7568   C.2       1 RES1   0.0000
     7 C7       4.0719   4.6300   4.0918   C.3       1 RES1   0.0000
     8 N1      -1.0070   5.5230   1.7407   N.4       1 RES1   1.0000
     9 O1       1.7969   4.0885   3.9375   O.3       1 RES1   0.0000
    10 O2       3.2461   2.4939   3.3849   O.2       1 RES1   0.0000
    11 H1      -2.4442   6.5552   2.9452   H         1 RES1   0.0000
    12 H2      -1.3703   7.6158   2.0332   H         1 RES1   0.0000
    13 H3      -2.6670   6.7604   1.2102   H         1 RES1   0.0000
    14 H4      -2.5447   4.4279   0.7343   H         1 RES1   0.0000
    15 H5      -1.2251   3.4321   1.3443   H         1 RES1   0.0000
    16 H6      -2.4218   4.0881   2.4590   H         1 RES1   0.0000
    17 H7       1.5615   4.2942   1.8613   H         1 RES1   0.0000
    18 H8       0.4033   3.2158   2.6521   H         1 RES1   0.0000
    19 H9       0.3623   6.6677   0.5613   H         1 RES1   0.0000
    20 H10      0.3982   4.9358   0.2383   H         1 RES1   0.0000
    21 H11     -0.9376   5.9163  -0.3609   H         1 RES1   0.0000
    22 H12      0.5206   6.2280   3.0525   H         1 RES1   0.0000
    23 H13     -0.6402   5.1114   3.7823   H         1 RES1   0.0000
    24 H14      4.3483   4.5671   5.1422   H         1 RES1   0.0000
    25 H15      4.9686   4.4754   3.4954   H         1 RES1   0.0000
    26 H16      3.7049   5.6357   3.8975   H         1 RES1   0.0000
@<TRIPOS>BOND
     1     4     5    1
     2     6     7    1
     3     8     1    1
     4     9     5    1
     5    10     6    2
     6     2     8    1
     7     3     8    1
     8     4     8    1
     9     6     9    1
    10     1    11    1
    11     1    12    1
    12     1    13    1
    13     2    14    1
    14     2    15    1
    15     2    16    1
    16     5    17    1
    17     5    18    1
    18     3    19    1
    19     3    20    1
    20     3    21    1
    21     4    22    1
    22     4    23    1
    23     7    24    1
    24     7    25    1
    25     7    26    1
@<TRIPOS>SUBSTRUCTURE
     1 RES1        1 GROUP             0 ****  ****    0  
@<TRIPOS>MOLECULE
ACHOLC
    26    25     1     0     0
SMALL
USER_CHARGES
****
Generated from the CSD

@<TRIPOS>ATOM
     1 C1      -1.9219   6.6793   1.9989   C.3       1 RES1   0.0000
     2 C2      -1.8473   4.2984   1.5593   C.3       1 RES1   0.0000
     3 C3      -0.2533   5.7750   0.4730   C.3       1 RES1   0.0000
     4 C4      -0.0392   5.2997   2.8841   C.3       1 RES1   0.0000
     5 C5       0.9488   4.1612   2.7614   C.3       1 RES1   0.0000
     6 C6       3.0324   3.6140   3.7568   C.2       1 RES1   0.0000
     7 C7       3.2517   2.3393   4.4998   C.3       1 RES1   0.0000
     8 N1      -1.0070   5.5230   1.7407   N.4       1 RES1   1.0000
     9 O1       1.7969   4.0885   3.9375   O.3       1 RES1   0.0000
    10 O2       3.8397   4.1630   3.0600   O.2       1 RES1   0.0000
    11 H1      -2.4442   6.5552   2.9452   H         1 RES1   0.0000
    12 H2      -1.3703   7.6158   2.0332   H         1 RES1   0.0000
    13 H3      -2.6670   6.7604   1.2102   H         1 RES1   0.0000
    14 H4      -2.5447   4.4279   0.7343   H         1 RES1   0.0000
    15 H5      -1.2251   3.4321   1.3443   H         1 RES1   0.0000
    16 H6      -2.4218   4.0881   2.4590   H         1 RES1   0.0000
    17 H7       1.5615   4.2942   1.8613   H         1 RES1   0.0000
    18 H8       0.4033   3.2158   2.6521   H         1 RES1   0.0000
    19 H9       0.3623   6.6677   0.5613   H         1 RES1   0.0000
    20 H10      0.3982   4.9358   0.2383   H         1 RES1   0.0000
    21 H11     -0.9376   5.9163  -0.3609   H         1 RES1   0.0000
    22 H12      0.5206   6.2280   3.0525   H         1 RES1   0.0000
    23 H13     -0.6402   5.1114   3.7823   H         1 RES1   0.0000
    24 H14      2.9801   1.4833   3.8856   H         1 RES1   0.0000
    25 H15      4.2963   2.2339   4.7851   H         1 RES1   0.0000
    26 H16      2.6487   2.3118   5.4050   H         1 RES1   0.0000
@<TRIPOS>BOND
     1     4     5    1
     2     6     7    1
     3     8     1    1
     4     9     5    1
     5    10     6    2
     6     2     8    1
     7     3     8    1
     8     4     8    1
     9     6     9    1
    10     1    11    1
    11     1    12    1
    12     1    13    1
    13     2    14    1
    14     2    15    1
    15     2    16    1
    16     5    17    1
    17     5    18    1
    18     3    19    1
    19     3    20    1
    20     3    21    1
    21     4    22    1
    22     4    23    1
    23     7    24    1
    24     7    25    1
    25     7    26    1
@<TRIPOS>SUBSTRUCTURE
     1 RES1        1 GROUP             0 ****  ****    0  
@<TRIPOS>MOLECULE
ACHOLC
    26    25     1     0     0
SMALL
USER_CHARGES
****
Generated from the CSD

@<TRIPOS>ATOM
     1 C1      -1.9219   6.6793   1.9989   C.3       1 RES1   0.0000
     2 C2      -1.8473   4.2984   1.5593   C.3       1 RES1   0.0000
     3 C3      -0.2533   5.7750   0.4730   C.3       1 RES1   0.0000
     4 C4      -0.0392   5.2997   2.8841   C.3       1 RES1   0.0000
     5 C5       0.9488   4.1612   2.7614   C.3       1 RES1   0.0000
     6 C6       2.2489   2.8780   4.2764   C.2       1 RES1   0.0000
     7 C7       3.7377   2.8055   4.2200   C.3       1 RES1   0.0000
     8 N1      -1.0070   5.5230   1.7407   N.4       1 RES1   1.0000
     9 O1       1.7969   4.0885   3.9375   O.3       1 RES1   0.0000
    10 O2       1.5186   1.9829   4.5990   O.2       1 RES1   0.0000
    11 H1      -2.4442   6.5552   2.9452   H         1 RES1   0.0000
    12 H2      -1.3703   7.6158   2.0332   H         1 RES1   0.0000
    13 H3      -2.6670   6.7604   1.2102   H         1 RES1   0.0000
    14 H4      -2.5447   4.4279   0.7343   H         1 RES1   0.0000
    15 H5      -1.2251   3.4321   1.3443   H         1 RES1   0.0000
    16 H6      -2.4218   4.0881   2.4590   H         1 RES1   0.0000
    17 H7       1.5615   4.2942   1.8613   H         1 RES1   0.0000
    18 H8       0.4033   3.2158   2.6521   H         1 RES1   0.0000
    19 H9       0.3623   6.6677   0.5613   H         1 RES1   0.0000
    20 H10      0.3982   4.9358   0.2383   H         1 RES1   0.0000
    21 H11     -0.9376   5.9163  -0.3609   H         1 RES1   0.0000
    22 H12      0.5206   6.2280   3.0525   H         1 RES1   0.0000
    23 H13     -0.6402   5.1114   3.7823   H         1 RES1   0.0000
    24 H14      4.1740   3.0861   5.1764   H         1 RES1   0.0000
    25 H15      4.0659   1.7962   3.9808   H         1 RES1   0.0000
    26 H16      4.1280   3.4781   3.4590   H         1 RES1   0.0000
@<TRIPOS>BOND
     1     4     5    1
     2     6     7    1
     3     8     1    1
     4     9     5    1
     5    10     6    2
     6     2     8    1
     7     3     8    1
     8     4     8    1
     9     6     9    1
    10     1    11    1
    11     1    12    1
    12     1    13    1
    13     2    14    1
    14     2    15    1
    15     2    16    1
    16     5    17    1
    17     5    18    1
    18     3    19    1
    19     3    20    1
    20     3    21    1
    21     4    22    1
    22     4    23    1
    23     7    24    1
    24     7    25    1
    25     7    26    1
@<TRIPOS>SUBSTRUCTURE
     1 RES1        1 GROUP             0 ****  ****    0  
@<TRIPOS>MOLECULE
ACHOLC
    26    25     1     0     0
SMALL
USER_CHARGES
****
Generated from the CSD

@<TRIPOS>ATOM
     1 C1      -1.9219   6.6793   1.9989   C.3       1 RES1   0.0000
     2 C2      -1.8473   4.2984   1.5593   C.3       1 RES1   0.0000
     3 C3      -0.2533   5.7750   0.4730   C.3       1 RES1   0.0000
     4 C4      -0.0392   5.2997   2.8841   C.3       1 RES1   0.0000
     5 C5       0.9488   4.1612   2.7614   C.3       1 RES1   0.0000
     6 C6       2.2489   2.8780   4.2764   C.2       1 RES1   0.0000
     7 C7       1.7283   2.4428   5.6047   C.3       1 RES1   0.0000
     8 N1      -1.0070   5.5230   1.7407   N.4       1 RES1   1.0000
     9 O1       1.7969   4.0885   3.9375   O.3       1 RES1   0.0000
    10 O2       2.9723   2.2367   3.5664   O.2       1 RES1   0.0000
    11 H1      -2.4442   6.5552   2.9452   H         1 RES1   0.0000
    12 H2      -1.3703   7.6158   2.0332   H         1 RES1   0.0000
    13 H3      -2.6670   6.7604   1.2102   H         1 RES1   0.0000
    14 H4      -2.5447   4.4279   0.7343   H         1 RES1   0.0000
    15 H5      -1.2251   3.4321   1.3443   H         1 RES1   0.0000
    16 H6      -2.4218   4.0881   2.4590   H         1 RES1   0.0000
    17 H7       1.5615   4.2942   1.8613   H         1 RES1   0.0000
    18 H8       0.4033   3.2158   2.6521   H         1 RES1   0.0000
    19 H9       0.3623   6.6677   0.5613   H         1 RES1   0.0000
    20 H10      0.3982   4.9358   0.2383   H         1 RES1   0.0000
    21 H11     -0.9376   5.9163  -0.3609   H         1 RES1   0.0000
    22 H12      0.5206   6.2280   3.0525   H         1 RES1   0.0000
    23 H13     -0.6402   5.1114   3.7823   H         1 RES1   0.0000
    24 H14      0.7861   1.9100   5.4940   H         1 RES1   0.0000
    25 H15      2.4363   1.7804   6.0983   H         1 RES1   0.0000
    26 H16      1.5585   3.3005   6.2523   H         1 RES1   0.0000
@<TRIPOS>BOND
     1     4     5    1
     2     6     7    1
     3     8     1    1
     4     9     5    1
     5    10     6    2
     6     2     8    1
     7     3     8    1
     8     4     8    1
     9     6     9    1
    10     1    11    1
    11     1    12    1
    12     1    13    1
    13     2    14    1
    14     2    15    1
    15     2    16    1
    16     5    17    1
    17     5    18    1
    18     3    19    1
    19     3    20    1
    20     3    21    1
    21     4    22    1
    22     4    23    1
    23     7    24    1
    24     7    25    1
    25     7    26    1
@<TRIPOS>SUBSTRUCTURE
     1 RES1        1 GROUP             0 ****  ****    0  
@<TRIPOS>MOLECULE
ACHOLC
    26    25     1     0     0
SMALL
USER_CHARGES
****
Generated from the CSD

@<TRIPOS>ATOM
     1 C1      -1.9219   6.6794   1.9989   C.3       1 RES1   0.0000
     2 C2      -1.8474   4.2984   1.5594   C.3       1 RES1   0.0000
     3 C3      -0.2534   5.7749   0.4730   C.3       1 RES1   0.0000
     4 C4      -0.0392   5.2997   2.8841   C.3       1 RES1   0.0000
     5 C5       0.9488   4.1612   2.7614   C.3       1 RES1   0.0000
     6 C6       1.4226   2.0261   3.6827   C.2       1 RES1   0.0000
     7 C7       2.1064   1.8338   4.9943   C.3       1 RES1   0.0000
     8 N1      -1.0070   5.5229   1.7407   N.4       1 RES1   1.0000
     9 O1       0.6220   3.0955   3.6916   O.3       1 RES1   0.0000
    10 O2       1.5415   1.3163   2.7233   O.2       1 RES1   0.0000
    11 H1      -2.4441   6.5554   2.9452   H         1 RES1   0.0000
    12 H2      -1.3702   7.6158   2.0331   H         1 RES1   0.0000
    13 H3      -2.6670   6.7604   1.2102   H         1 RES1   0.0000
    14 H4      -2.5448   4.4279   0.7344   H         1 RES1   0.0000
    15 H5      -1.2252   3.4320   1.3445   H         1 RES1   0.0000
    16 H6      -2.4219   4.0882   2.4591   H         1 RES1   0.0000
    17 H7       1.9656   4.5278   2.9487   H         1 RES1   0.0000
    18 H8       0.9241   3.7661   1.7384   H         1 RES1   0.0000
    19 H9       0.3763   6.6571   0.5675   H         1 RES1   0.0000
    20 H10      0.3843   4.9279   0.2286   H         1 RES1   0.0000
    21 H11     -0.9379   5.9344  -0.3575   H         1 RES1   0.0000
    22 H12      0.5206   6.2280   3.0524   H         1 RES1   0.0000
    23 H13     -0.6402   5.1114   3.7823   H         1 RES1   0.0000
    24 H14      1.5070   1.2097   5.6539   H         1 RES1   0.0000
    25 H15      3.0728   1.3528   4.8585   H         1 RES1   0.0000
    26 H16      2.2698   2.7895   5.4880   H         1 RES1   0.0000
@<TRIPOS>BOND
     1     4     5    1
     2     6     7    1
     3     8     1    1
     4     9     5    1
     5    10     6    2
     6     2     8    1
     7     3     8    1
     8     4     8    1
     9     6     9    1
    10     1    11    1
    11     1    12    1
    12     1    13    1
    13     2    14    1
    14     2    15    1
    15     2    16    1
    16     5    17    1
    17     5    18    1
    18     3    19    1
    19     3    20    1
    20     3    21    1
    21     4    22    1
    22     4    23    1
    23     7    24    1
    24     7    25    1
    25     7    26    1
@<TRIPOS>SUBSTRUCTURE
     1 RES1        1 GROUP             0 ****  ****    0  
@<TRIPOS>MOLECULE
ACHOLC
    26    25     1     0     0
SMALL
USER_CHARGES
****
Generated from the CSD

@<TRIPOS>ATOM
     1 C1      -1.9219   6.6794   1.9989   C.3       1 RES1   0.0000
     2 C2      -1.8474   4.2984   1.5594   C.3       1 RES1   0.0000
     3 C3      -0.2534   5.7749   0.4730   C.3       1 RES1   0.0000
     4 C4      -0.0392   5.2997   2.8841   C.3       1 RES1   0.0000
     5 C5       0.9488   4.1612   2.7614   C.3       1 RES1   0.0000
     6 C6       1.4226   2.0261   3.6827   C.2       1 RES1   0.0000
     7 C7       0.6984   0.7941   3.2556   C.3       1 RES1   0.0000
     8 N1      -1.0070   5.5229   1.7407   N.4       1 RES1   1.0000
     9 O1       0.6220   3.0955   3.6916   O.3       1 RES1   0.0000
    10 O2       2.5848   2.0870   3.9728   O.2       1 RES1   0.0000
    11 H1      -2.4441   6.5554   2.9452   H         1 RES1   0.0000
    12 H2      -1.3702   7.6158   2.0331   H         1 RES1   0.0000
    13 H3      -2.6670   6.7604   1.2102   H         1 RES1   0.0000
    14 H4      -2.5448   4.4279   0.7344   H         1 RES1   0.0000
    15 H5      -1.2252   3.4320   1.3445   H         1 RES1   0.0000
    16 H6      -2.4219   4.0882   2.4591   H         1 RES1   0.0000
    17 H7       1.9656   4.5278   2.9487   H         1 RES1   0.0000
    18 H8       0.9241   3.7661   1.7384   H         1 RES1   0.0000
    19 H9       0.3763   6.6571   0.5675   H         1 RES1   0.0000
    20 H10      0.3843   4.9279   0.2286   H         1 RES1   0.0000
    21 H11     -0.9379   5.9344  -0.3575   H         1 RES1   0.0000
    22 H12      0.5206   6.2280   3.0524   H         1 RES1   0.0000
    23 H13     -0.6402   5.1114   3.7823   H         1 RES1   0.0000
    24 H14      0.7496   0.6715   2.1757   H         1 RES1   0.0000
    25 H15      1.1340  -0.0892   3.7180   H         1 RES1   0.0000
    26 H16     -0.3501   0.8442   3.5416   H         1 RES1   0.0000
@<TRIPOS>BOND
     1     4     5    1
     2     6     7    1
     3     8     1    1
     4     9     5    1
     5    10     6    2
     6     2     8    1
     7     3     8    1
     8     4     8    1
     9     6     9    1
    10     1    11    1
    11     1    12    1
    12     1    13    1
    13     2    14    1
    14     2    15    1
    15     2    16    1
    16     5    17    1
    17     5    18    1
    18     3    19    1
    19     3    20    1
    20     3    21    1
    21     4    22    1
    22     4    23    1
    23     7    24    1
    24     7    25    1
    25     7    26    1
@<TRIPOS>SUBSTRUCTURE
     1 RES1        1 GROUP             0 ****  ****    0  
@<TRIPOS>MOLECULE
ACHOLC
    26    25     1     0     0
SMALL
USER_CHARGES
****
Generated from the CSD

@<TRIPOS>ATOM
     1 C1      -1.9219   6.6793   1.9989   C.3       1 RES1   0.0000
     2 C2      -1.8473   4.2984   1.5593   C.3       1 RES1   0.0000
     3 C3      -0.2533   5.7750   0.4730   C.3       1 RES1   0.0000
     4 C4      -0.0392   5.2997   2.8841   C.3       1 RES1   0.0000
     5 C5       0.9488   4.1612   2.7614   C.3       1 RES1   0.0000
     6 C6       3.2681   3.7596   2.4591   C.2       1 RES1   0.0000
     7 C7       3.9486   3.8484   1.1348   C.3       1 RES1   0.0000
     8 N1      -1.0070   5.5230   1.7407   N.4       1 RES1   1.0000
     9 O1       2.2970   4.6687   2.5810   O.3       1 RES1   0.0000
    10 O2       3.5456   2.9895   3.3358   O.2       1 RES1   0.0000
    11 H1      -2.4442   6.5552   2.9452   H         1 RES1   0.0000
    12 H2      -1.3703   7.6158   2.0332   H         1 RES1   0.0000
    13 H3      -2.6670   6.7604   1.2102   H         1 RES1   0.0000
    14 H4      -2.5447   4.4279   0.7343   H         1 RES1   0.0000
    15 H5      -1.2251   3.4321   1.3443   H         1 RES1   0.0000
    16 H6      -2.4218   4.0881   2.4590   H         1 RES1   0.0000
    17 H7       0.6718   3.5160   1.9186   H         1 RES1   0.0000
    18 H8       0.9135   3.5487   3.6708   H         1 RES1   0.0000
    19 H9       0.3623   6.6677   0.5613   H         1 RES1   0.0000
    20 H10      0.3982   4.9358   0.2383   H         1 RES1   0.0000
    21 H11     -0.9376   5.9163  -0.3609   H         1 RES1   0.0000
    22 H12      0.5206   6.2280   3.0525   H         1 RES1   0.0000
    23 H13     -0.6402   5.1114   3.7823   H         1 RES1   0.0000
    24 H14      4.7880   4.5393   1.1780   H         1 RES1   0.0000
    25 H15      4.3264   2.8749   0.8292   H         1 RES1   0.0000
    26 H16      3.2594   4.1998   0.3698   H         1 RES1   0.0000
@<TRIPOS>BOND
     1     4     5    1
     2     6     7    1
     3     8     1    1
     4     9     5    1
     5    10     6    2
     6     2     8    1
     7     3     8    1
     8     4     8    1
     9     6     9    1
    10     1    11    1
    11     1    12    1
    12     1    13    1
    13     2    14    1
    14     2    15    1
    15     2    16    1
    16     5    17    1
    17     5    18    1
    18     3    19    1
    19     3    20    1
    20     3    21    1
    21     4    22    1
    22     4    23    1
    23     7    24    1
    24     7    25    1
    25     7    26    1
@<TRIPOS>SUBSTRUCTURE
     1 RES1        1 GROUP             0 ****  ****    0  
@<TRIPOS>MOLECULE
ACHOLC
    26    25     1     0     0
SMALL
USER_CHARGES
****
Generated from the CSD

@<TRIPOS>ATOM
     1 C1      -1.9219   6.6793   1.9989   C.3       1 RES1   0.0000
     2 C2      -1.8473   4.2984   1.5593   C.3       1 RES1   0.0000
     3 C3      -0.2533   5.7750   0.4730   C.3       1 RES1   0.0000
     4 C4      -0.0392   5.2997   2.8841   C.3       1 RES1   0.0000
     5 C5       0.9488   4.1612   2.7614   C.3       1 RES1   0.0000
     6 C6       3.2681   3.7596   2.4591   C.2       1 RES1   0.0000
     7 C7       4.2446   3.8361   3.5840   C.3       1 RES1   0.0000
     8 N1      -1.0070   5.5230   1.7407   N.4       1 RES1   1.0000
     9 O1       2.2970   4.6687   2.5810   O.3       1 RES1   0.0000
    10 O2       3.3109   2.9782   1.5501   O.2       1 RES1   0.0000
    11 H1      -2.4442   6.5552   2.9452   H         1 RES1   0.0000
    12 H2      -1.3703   7.6158   2.0332   H         1 RES1   0.0000
    13 H3      -2.6670   6.7604   1.2102   H         1 RES1   0.0000
    14 H4      -2.5447   4.4279   0.7343   H         1 RES1   0.0000
    15 H5      -1.2251   3.4321   1.3443   H         1 RES1   0.0000
    16 H6      -2.4218   4.0881   2.4590   H         1 RES1   0.0000
    17 H7       0.6718   3.5160   1.9186   H         1 RES1   0.0000
    18 H8       0.9135   3.5487   3.6708   H         1 RES1   0.0000
    19 H9       0.3623   6.6677   0.5613   H         1 RES1   0.0000
    20 H10      0.3982   4.9358   0.2383   H         1 RES1   0.0000
    21 H11     -0.9376   5.9163  -0.3609   H         1 RES1   0.0000
    22 H12      0.5206   6.2280   3.0525   H         1 RES1   0.0000
    23 H13     -0.6402   5.1114   3.7823   H         1 RES1   0.0000
    24 H14      3.9354   3.1956   4.4074   H         1 RES1   0.0000
    25 H15      5.2328   3.5172   3.2593   H         1 RES1   0.0000
    26 H16      4.3230   4.8547   3.9580   H         1 RES1   0.0000
@<TRIPOS>BOND
     1     4     5    1
     2     6     7    1
     3     8     1    1
     4     9     5    1
     5    10     6    2
     6     2     8    1
     7     3     8    1
     8     4     8    1
     9     6     9    1
    10     1    11    1
    11     1    12    1
    12     1    13    1
    13     2    14    1
    14     2    15    1
    15     2    16    1
    16     5    17    1
    17     5    18    1
    18     3    19    1
    19     3    20    1
    20     3    21    1
    21     4    22    1
    22     4    23    1
    23     7    24    1
    24     7    25    1
    25     7    26    1
@<TRIPOS>SUBSTRUCTURE
     1 RES1        1 GROUP             0 ****  ****    0  
@<TRIPOS>MOLECULE
ACHOLC
    26    25     1     0     0
SMALL
USER_CHARGES
****
Generated from the CSD

@<TRIPOS>ATOM
     1 C1      -1.9608   6.6253   2.0000   C.3       1 RES1   0.0000
     2 C2      -1.7781   4.2631   1.4954   C.3       1 RES1   0.0000
     3 C3      -0.2270   5.8352   0.4834   C.3       1 RES1   0.0000
     4 C4      -0.0392   5.2997   2.8841   C.3       1 RES1   0.0000
     5 C5       0.9041   6.4265   3.2417   C.3       1 RES1   0.0000
     6 C6       0.5489   8.6844   2.6033   C.2       1 RES1   0.0000
     7 C7       1.0873   9.8345   3.3857   C.3       1 RES1   0.0000
     8 N1      -0.9935   5.5157   1.7281   N.4       1 RES1   1.0000
     9 O1       0.1782   7.6744   3.3951   O.3       1 RES1   0.0000
    10 O2       0.4617   8.6336   1.4081   O.2       1 RES1   0.0000
    11 H1      -2.0339   6.8215   3.0676   H         1 RES1   0.0000
    12 H2      -1.6542   7.5432   1.5040   H         1 RES1   0.0000
    13 H3      -2.9526   6.3653   1.6358   H         1 RES1   0.0000
    14 H4      -2.4645   4.3875   0.6604   H         1 RES1   0.0000
    15 H5      -1.1162   3.4299   1.2688   H         1 RES1   0.0000
    16 H6      -2.3605   4.0034   2.3769   H         1 RES1   0.0000
    17 H7       1.6732   6.5295   2.4663   H         1 RES1   0.0000
    18 H8       1.4148   6.1891   4.1830   H         1 RES1   0.0000
    19 H9       0.7064   6.3397   0.7242   H         1 RES1   0.0000
    20 H10      0.0107   4.9272  -0.0669   H         1 RES1   0.0000
    21 H11     -0.8053   6.4856  -0.1694   H         1 RES1   0.0000
    22 H12     -0.6248   5.0417   3.7751   H         1 RES1   0.0000
    23 H13      0.5780   4.4281   2.6333   H         1 RES1   0.0000
    24 H14      2.1609   9.7336   3.5303   H         1 RES1   0.0000
    25 H15      0.9017  10.7735   2.8685   H         1 RES1   0.0000
    26 H16      0.6170   9.8884   4.3654   H         1 RES1   0.0000
@<TRIPOS>BOND
     1     4     5    1
     2     6     7    1
     3     8     1    1
     4     9     5    1
     5    10     6    2
     6     2     8    1
     7     3     8    1
     8     4     8    1
     9     6     9    1
    10     1    11    1
    11     1    12    1
    12     1    13    1
    13     2    14    1
    14     2    15    1
    15     2    16    1
    16     5    17    1
    17     5    18    1
    18     3    19    1
    19     3    20    1
    20     3    21    1
    21     4    22    1
    22     4    23    1
    23     7    24    1
    24     7    25    1
    25     7    26    1
@<TRIPOS>SUBSTRUCTURE
     1 RES1        1 GROUP             0 ****  ****    0  
@<TRIPOS>MOLECULE
ACHOLC
    26    25     1     0     0
SMALL
USER_CHARGES
****
Generated from the CSD

@<TRIPOS>ATOM
     1 C1      -1.8908   6.7025   1.9702   C.3       1 RES1   0.0000
     2 C2      -1.8789   4.3095   1.5949   C.3       1 RES1   0.0000
     3 C3      -0.2535   5.7152   0.4620   C.3       1 RES1   0.0000
     4 C4      -0.0392   5.2997   2.8841   C.3       1 RES1   0.0000
     5 C5      -0.6159   4.9989   4.2494   C.3       1 RES1   0.0000
     6 C6      -2.8526   5.4845   4.8762   C.2       1 RES1   0.0000
     7 C7      -3.2679   5.7937   6.2751   C.3       1 RES1   0.0000
     8 N1      -1.0069   5.5167   1.7394   N.4       1 RES1   1.0000
     9 O1      -1.6385   5.9680   4.5996   O.3       1 RES1   0.0000
    10 O2      -3.5113   4.8917   4.0679   O.2       1 RES1   0.0000
    11 H1      -2.8628   6.3924   2.3481   H         1 RES1   0.0000
    12 H2      -1.4477   7.3880   2.6887   H         1 RES1   0.0000
    13 H3      -2.0478   7.2483   1.0422   H         1 RES1   0.0000
    14 H4      -2.8638   4.5871   1.2255   H         1 RES1   0.0000
    15 H5      -1.4422   3.5998   0.8953   H         1 RES1   0.0000
    16 H6      -2.0049   3.8079   2.5521   H         1 RES1   0.0000
    17 H7       0.1829   5.0038   5.0013   H         1 RES1   0.0000
    18 H8      -1.0580   3.9949   4.2450   H         1 RES1   0.0000
    19 H9       0.3850   6.5939   0.5234   H         1 RES1   0.0000
    20 H10      0.3753   4.8536   0.2472   H         1 RES1   0.0000
    21 H11     -0.9383   5.8514  -0.3724   H         1 RES1   0.0000
    22 H12      0.6466   4.4883   2.6108   H         1 RES1   0.0000
    23 H13      0.5573   6.2154   2.9792   H         1 RES1   0.0000
    24 H14     -3.7873   6.7486   6.3212   H         1 RES1   0.0000
    25 H15     -3.9365   5.0254   6.6577   H         1 RES1   0.0000
    26 H16     -2.4019   5.8468   6.9316   H         1 RES1   0.0000
@<TRIPOS>BOND
     1     4     5    1
     2     6     7    1
     3     8     1    1
     4     9     5    1
     5    10     6    2
     6     2     8    1
     7     3     8    1
     8     4     8    1
     9     6     9    1
    10     1    11    1
    11     1    12    1
    12     1    13    1
    13     2    14    1
    14     2    15    1
    15     2    16    1
    16     5    17    1
    17     5    18    1
    18     3    19    1
    19     3    20    1
    20     3    21    1
    21     4    22    1
    22     4    23    1
    23     7    24    1
    24     7    25    1
    25     7    26    1
@<TRIPOS>SUBSTRUCTURE
     1 RES1        1 GROUP             0 ****  ****    0  
@<TRIPOS>MOLECULE
ACHOLC
    26    25     1     0     0
SMALL
USER_CHARGES
****
Generated from the CSD

@<TRIPOS>ATOM
     1 C1      -1.9050   6.6951   1.9880   C.3       1 RES1   0.0000
     2 C2      -1.8354   4.3177   1.5290   C.3       1 RES1   0.0000
     3 C3      -0.2220   5.7964   0.4747   C.3       1 RES1   0.0000
     4 C4      -0.0392   5.2997   2.8841   C.3       1 RES1   0.0000
     5 C5       0.9488   4.1612   2.7614   C.3       1 RES1   0.0000
     6 C6      -0.2918   2.2082   3.2890   C.2       1 RES1   0.0000
     7 C7      -1.5154   2.2459   4.1413   C.3       1 RES1   0.0000
     8 N1      -0.9921   5.5370   1.7310   N.4       1 RES1   1.0000
     9 O1       0.6220   3.0955   3.6916   O.3       1 RES1   0.0000
    10 O2      -0.1239   1.4931   2.3408   O.2       1 RES1   0.0000
    11 H1      -2.4393   6.5653   2.9269   H         1 RES1   0.0000
    12 H2      -1.3498   7.6288   2.0370   H         1 RES1   0.0000
    13 H3      -2.6402   6.7862   1.1911   H         1 RES1   0.0000
    14 H4      -2.5828   4.4892   0.7572   H         1 RES1   0.0000
    15 H5      -1.2230   3.4711   1.2256   H         1 RES1   0.0000
    16 H6      -2.3525   4.0498   2.4480   H         1 RES1   0.0000
    17 H7       1.9656   4.5278   2.9487   H         1 RES1   0.0000
    18 H8       0.9241   3.7661   1.7384   H         1 RES1   0.0000
    19 H9       0.4049   6.6792   0.5820   H         1 RES1   0.0000
    20 H10      0.4204   4.9517   0.2347   H         1 RES1   0.0000
    21 H11     -0.8957   5.9590  -0.3640   H         1 RES1   0.0000
    22 H12      0.5196   6.2253   3.0698   H         1 RES1   0.0000
    23 H13     -0.6518   5.1024   3.7724   H         1 RES1   0.0000
    24 H14     -1.5796   3.1876   4.6824   H         1 RES1   0.0000
    25 H15     -2.4120   2.1423   3.5336   H         1 RES1   0.0000
    26 H16     -1.5037   1.4370   4.8688   H         1 RES1   0.0000
@<TRIPOS>BOND
     1     4     5    1
     2     6     7    1
     3     8     1    1
     4     9     5    1
     5    10     6    2
     6     2     8    1
     7     3     8    1
     8     4     8    1
     9     6     9    1
    10     1    11    1
    11     1    12    1
    12     1    13    1
    13     2    14    1
    14     2    15    1
    15     2    16    1
    16     5    17    1
    17     5    18    1
    18     3    19    1
    19     3    20    1
    20     3    21    1
    21     4    22    1
    22     4    23    1
    23     7    24    1
    24     7    25    1
    25     7    26    1
@<TRIPOS>SUBSTRUCTURE
     1 RES1        1 GROUP             0 ****  ****    0  
@<TRIPOS>MOLECULE
ACHOLC
    26    25     1     0     0
SMALL
USER_CHARGES
****
Generated from the CSD

@<TRIPOS>ATOM
     1 C1      -1.9359   6.6661   2.0084   C.3       1 RES1   0.0000
     2 C2      -1.8578   4.2821   1.5863   C.3       1 RES1   0.0000
     3 C3      -0.2805   5.7557   0.4718   C.3       1 RES1   0.0000
     4 C4      -0.0392   5.2997   2.8841   C.3       1 RES1   0.0000
     5 C5       0.9488   4.1612   2.7614   C.3       1 RES1   0.0000
     6 C6       2.6578   4.9805   1.3332   C.2       1 RES1   0.0000
     7 C7       2.9853   6.4292   1.1955   C.3       1 RES1   0.0000
     8 N1      -1.0198   5.5109   1.7494   N.4       1 RES1   1.0000
     9 O1       2.2970   4.6687   2.5810   O.3       1 RES1   0.0000
    10 O2       2.7175   4.1653   0.4554   O.2       1 RES1   0.0000
    11 H1      -2.4477   6.5476   2.9611   H         1 RES1   0.0000
    12 H2      -1.3872   7.6047   2.0297   H         1 RES1   0.0000
    13 H3      -2.6896   6.7386   1.2271   H         1 RES1   0.0000
    14 H4      -2.5643   4.4030   0.7678   H         1 RES1   0.0000
    15 H5      -1.2349   3.4163   1.3714   H         1 RES1   0.0000
    16 H6      -2.4220   4.0769   2.4936   H         1 RES1   0.0000
    17 H7       0.6718   3.5160   1.9186   H         1 RES1   0.0000
    18 H8       0.9135   3.5487   3.6708   H         1 RES1   0.0000
    19 H9       0.3787   6.6161   0.5665   H         1 RES1   0.0000
    20 H10      0.3255   4.8922   0.2054   H         1 RES1   0.0000
    21 H11     -0.9738   5.9481  -0.3443   H         1 RES1   0.0000
    22 H12      0.5212   6.2302   3.0374   H         1 RES1   0.0000
    23 H13     -0.6300   5.1193   3.7906   H         1 RES1   0.0000
    24 H14      4.0391   6.6074   1.3992   H         1 RES1   0.0000
    25 H15      2.7710   6.7790   0.1878   H         1 RES1   0.0000
    26 H16      2.3998   7.0249   1.8927   H         1 RES1   0.0000
@<TRIPOS>BOND
     1     4     5    1
     2     6     7    1
     3     8     1    1
     4     9     5    1
     5    10     6    2
     6     2     8    1
     7     3     8    1
     8     4     8    1
     9     6     9    1
    10     1    11    1
    11     1    12    1
    12     1    13    1
    13     2    14    1
    14     2    15    1
    15     2    16    1
    16     5    17    1
    17     5    18    1
    18     3    19    1
    19     3    20    1
    20     3    21    1
    21     4    22    1
    22     4    23    1
    23     7    24    1
    24     7    25    1
    25     7    26    1
@<TRIPOS>SUBSTRUCTURE
     1 RES1        1 GROUP             0 ****  ****    0  
