@<TRIPOS>MOLECULE
pharmacophore_model
     3     0     1     0     0
SMALL
NO_CHARGES
****
Generated from the CSD - Crystal connectivity not present

@<TRIPOS>ATOM
     1 1.7833127072658215    0.0000   2.5000   3.5000   O.3       1 RES1   0.0000
     2 2.55092108586396    2.0000   3.5000   6.0000   O.3       1 RES1   0.0000
     3 2.4226835041409935   -1.5000   5.5000   2.0000   H         1 RES1   0.0000
@<TRIPOS>SUBSTRUCTURE
     1 RES1        1 GROUP             0 ****  ****    0  
