
  SciTegic12231509382D

 12 12  0  0  0  0            999 V2000
    2.4452  -22.9495    0.0000 C   0  0  2  0  0  0
    3.1071  -23.4419    0.0000 O   0  0
    3.7812  -22.9659    0.0000 C   0  0  1  0  0  0
    3.5346  -22.1760    0.0000 C   0  0
    2.7105  -22.1696    0.0000 C   0  0  1  0  0  0
    4.5625  -23.2307    0.0000 C   0  0
    1.6574  -23.1946    0.0000 C   0  0
    5.1825  -22.6864    0.0000 N   0  3
    5.9639  -22.9512    0.0000 C   0  0
    5.0211  -21.8774    0.0000 C   0  0
    5.7625  -22.0958    0.0000 C   0  0
    2.2328  -21.4970    0.0000 O   0  0
  3  6  1  1
  1  7  1  1
  2  3  1  0
  6  8  1  0
  3  4  1  0
  8  9  1  0
  4  5  1  0
  8 10  1  0
  5  1  1  0
  8 11  1  0
  1  2  1  0
  5 12  1  6
M  CHG  1   8   1
M  END
> <chembl_id>
CHEMBL12587

