@<TRIPOS>MOLECULE
ZINC44785286_0_17_24
    43    44     1     0     1
SMALL
NO_CHARGES
****
Generated from the CSD

@<TRIPOS>ATOM
     1 C1       3.4234  33.1616   7.9971   C.3       1 <0>    0.0000
     2 N1       2.3915  32.3976   8.6815   N.am      1 <0>    0.0000
     3 C2       2.3505  32.5677  10.1369   C.3       1 <0>    0.0000
     4 C3       3.5083  31.9024  10.8418   C.ar      1 <0>    0.0000
     5 C4       3.2986  31.0022  11.8727   C.ar      1 <0>    0.0000
     6 C5       4.3885  30.4208  12.4897   C.ar      1 <0>    0.0000
     7 N2       5.6529  30.6746  12.1517   N.ar      1 <0>    0.0000
     8 C6       5.8441  31.5437  11.1590   C.ar      1 <0>    0.0000
     9 C7       4.8179  32.1743  10.4837   C.ar      1 <0>    0.0000
    10 C8       1.4871  31.5761   8.1142   C.2       1 <0>    0.0000
    11 O1       1.7138  31.1946   6.9825   O.2       1 <0>    0.0000
    12 C9       0.2071  31.0899   8.8254   C.3       1 <0>    0.0000
    13 C10     -0.5799  32.2885   9.3846   C.3       1 <0>    0.0000
    14 C11     -1.7277  31.9022  10.3096   C.3       1 <0>    0.0000
    15 C12     -1.2514  30.9944  11.4074   C.3       1 <0>    0.0000
    16 C13     -0.6057  29.7449  10.8558   C.3       1 <0>    0.0000
    17 C14      0.5625  30.0835   9.9360   C.3       1 <0>    0.0000
    18 C15     -0.6223  30.4132   7.7391   C.2       1 <0>    0.0000
    19 N3      -0.8881  29.1682   7.8737   N.2       1 <0>    0.0000
    20 O2      -1.6552  28.7367   6.7811   O.3       1 <0>    0.0000
    21 N4      -1.0189  31.1661   6.7197   N.pl3     1 <0>    0.0000
    22 H1       4.2854  32.5370   7.7741   H         1 <0>    0.0000
    23 H2       3.0573  33.5864   7.0661   H         1 <0>    0.0000
    24 H3       3.7633  33.9828   8.6244   H         1 <0>    0.0000
    25 H4       2.3568  33.6391  10.3721   H         1 <0>    0.0000
    26 H5       1.4114  32.1490  10.5191   H         1 <0>    0.0000
    27 H6       2.2909  30.7568  12.1916   H         1 <0>    0.0000
    28 H7       4.2056  29.7174  13.2953   H         1 <0>    0.0000
    29 H8       6.8641  31.7683  10.8649   H         1 <0>    0.0000
    30 H9       5.0349  32.8736   9.6832   H         1 <0>    0.0000
    31 H10     -0.9902  32.8493   8.5460   H         1 <0>    0.0000
    32 H11      0.1101  32.9209   9.9412   H         1 <0>    0.0000
    33 H12     -2.4945  31.3894   9.7309   H         1 <0>    0.0000
    34 H13     -2.1486  32.8044  10.7510   H         1 <0>    0.0000
    35 H14     -2.1023  30.7095  12.0244   H         1 <0>    0.0000
    36 H15     -0.5238  31.5285  12.0168   H         1 <0>    0.0000
    37 H16     -1.3481  29.1809  10.2930   H         1 <0>    0.0000
    38 H17     -0.2409  29.1390  11.6839   H         1 <0>    0.0000
    39 H18      1.3635  30.5073  10.5400   H         1 <0>    0.0000
    40 H19      0.9089  29.1635   9.4677   H         1 <0>    0.0000
    41 H20     -0.9946  28.4364   6.1091   H         1 <0>    0.0000
    42 H21     -0.7658  32.1537   6.6862   H         1 <0>    0.0000
    43 H22     -1.5766  30.7569   5.9701   H         1 <0>    0.0000
@<TRIPOS>BOND
     1     1     2    1
     2     1    22    1
     3     1    23    1
     4     1    24    1
     5     2     3    1
     6     2    10   am
     7     3     4    1
     8     3    25    1
     9     3    26    1
    10     4     9   ar
    11     4     5   ar
    12     5     6   ar
    13     5    27    1
    14     6     7   ar
    15     6    28    1
    16     7     8   ar
    17     8     9   ar
    18     8    29    1
    19     9    30    1
    20    10    11    2
    21    10    12    1
    22    12    17    1
    23    12    13    1
    24    12    18    1
    25    13    14    1
    26    13    31    1
    27    13    32    1
    28    14    15    1
    29    14    33    1
    30    14    34    1
    31    15    16    1
    32    15    35    1
    33    15    36    1
    34    16    17    1
    35    16    37    1
    36    16    38    1
    37    17    39    1
    38    17    40    1
    39    18    19    2
    40    18    21    1
    41    19    20    1
    42    20    41    1
    43    21    42    1
    44    21    43    1
@<TRIPOS>SUBSTRUCTURE
     1 <0>         1 GROUP             0 ****  ****    0  
@<TRIPOS>SET
CCDC_LIGAND STATIC ATOMS
43 1 2 3 4 5 6 7 8 9 \
10 11 12 13 14 15 16 17 18 19 \
20 21 22 23 24 25 26 27 28 29 \
30 31 32 33 34 35 36 37 38 39 \
40 41 42 43 
